<configuration>
    <input>
        <net-file value="cologne8.net.xml"/>
        <route-files value="cologne8.rou.xml"/>
    </input>
    <time>
        <begin value="25200"/>
        <end value="28800"/>
    </time>
     <processing>
        <lateral-resolution value="1" />
        <waiting-time-memory value="28800" />
    </processing>
</configuration>
