<?xml version="1.0" encoding="UTF-8"?>

<!-- generated on 2025-01-14 20:10:45.430543 by randomTrips.py v1_20_0+0002-343658e7c64
<configuration>
    <net-file value="cologne8.net.xml"/>
    <output-trip-file value="trips.trips.xml"/>
    <route-file value="cologne8_train.rou.xml"/>
    <trip-attributes value="departSpeed='max'"/>
    <fringe-factor value="max"/>
    <end value="10800.0"/>
    <insertion-density value="100.0 150.0 200.0 150.0 100.0 150.0 200.0 150.0 100.0"/>
</configuration>
-->

<!-- generated on 2025-01-14 20:10:45 by Eclipse SUMO duarouter Version 1.20.0
<configuration xmlns:xsi="http://www.w3.org/2001/XMLSchema-instance" xsi:noNamespaceSchemaLocation="http://sumo.dlr.de/xsd/duarouterConfiguration.xsd">

    <input>
        <net-file value="cologne8.net.xml"/>
        <route-files value="trips.trips.xml"/>
    </input>

    <output>
        <output-file value="cologne8_train.rou.xml"/>
        <alternatives-output value="NUL"/>
    </output>

    <time>
        <begin value="0"/>
        <end value="10800.0"/>
    </time>

    <report>
        <no-warnings value="true"/>
        <ignore-errors value="true"/>
        <no-step-log value="true"/>
    </report>

</configuration>
-->

<routes xmlns:xsi="http://www.w3.org/2001/XMLSchema-instance" xsi:noNamespaceSchemaLocation="http://sumo.dlr.de/xsd/routes_file.xsd">
    <vehicle id="0" depart="0.00" departSpeed="max">
        <route edges="160807420 -23686088#1 23686088#1 133081987#0 133081987#3 133081985#0 133081985#1 28675510#0 28675510#1 28675510#4 -22917421#14 -186623965#16 -186623965#14"/>
    </vehicle>
    <vehicle id="3" depart="6.80" departSpeed="max">
        <route edges="24675285 23656410#0 133081985#0 133081985#1 28675510#0 28675510#1 28675510#4 -22917421#14 -22917421#4"/>
    </vehicle>
    <vehicle id="4" depart="9.06" departSpeed="max">
        <route edges="-297047309#0 -28675494#1 -297047308 -28675493 -297047307 -297047310#3 -297047310#2 -186623965#14"/>
    </vehicle>
    <vehicle id="5" depart="11.33" departSpeed="max">
        <route edges="-23840971 23840713#2 23840712#1 23840712#4 22959550#4 -28675510#0 23283579#0 23286179#0 23286179#1 23286180"/>
    </vehicle>
    <vehicle id="7" depart="15.86" departSpeed="max">
        <route edges="160807420 -23686088#1 23686088#1 133081987#0 133081987#3 133081985#0 133081985#1 28675510#0 28675510#1 23840713#0 23840713#2 23840712#1 23840887#0 23840887#2 23840935"/>
    </vehicle>
    <vehicle id="8" depart="18.13" departSpeed="max">
        <route edges="-23840971 23840971"/>
    </vehicle>
    <vehicle id="9" depart="20.40" departSpeed="max">
        <route edges="23647118 8716807#6 -297047308 -28675493 -297047307 -297047310#3 -297047310#2 -186623965#14"/>
    </vehicle>
    <vehicle id="10" depart="22.66" departSpeed="max">
        <route edges="23647118 -8716807#5 -8716807#4 23283470#3 23283470#5 24610382"/>
    </vehicle>
    <vehicle id="11" depart="24.93" departSpeed="max">
        <route edges="-25166682#0 -23648008#0 -297047307 22959550#0 22959550#1 22959550#3 -23840712#4 -23840712#3 290365598#0 -23840888#0"/>
    </vehicle>
    <vehicle id="13" depart="29.46" departSpeed="max">
        <route edges="-22959475#4 -22917421#14 -22917421#4"/>
    </vehicle>
    <vehicle id="14" depart="31.73" departSpeed="max">
        <route edges="23840712#0 23840712#1 23840712#4 22959550#4 28675510#1 23840713#0 23840971"/>
    </vehicle>
    <vehicle id="15" depart="33.99" departSpeed="max">
        <route edges="23647118 -8716807#5 -8716807#4 23283470#3 23283470#5 24610382"/>
    </vehicle>
    <vehicle id="16" depart="36.26" departSpeed="max">
        <route edges="-42925825#2 155600123#0 297047310#3 297047310#4 28675493 297047308 -8716807#6 -8716807#5 -8716807#4 -8716807#0 -133081985#1 -133081985#0 -309744810#1 -133081987#2 -23686088#1 -23686088#0 4936412"/>
    </vehicle>
    <vehicle id="17" depart="38.53" departSpeed="max">
        <route edges="-28675510#11 -28675510#5 23840713#0 23840713#2 23840712#1 23840887#0 23840887#2 23840935"/>
    </vehicle>
    <vehicle id="18" depart="40.79" departSpeed="max">
        <route edges="23840712#0 23840712#1 23840712#4 22959550#4 28675510#1 23840713#0 23840972"/>
    </vehicle>
    <vehicle id="19" depart="43.06" departSpeed="max">
        <route edges="23840888#0 -290365598#1 23840712#1 23840712#4 22959550#4 28675510#1 23840713#0 23840971"/>
    </vehicle>
    <vehicle id="20" depart="45.32" departSpeed="max">
        <route edges="194017408#0 -194017408#1"/>
    </vehicle>
    <vehicle id="21" depart="47.59" departSpeed="max">
        <route edges="-23840972 23840713#2 23840712#1 23840887#0 23840887#2 23840887#3 -297047310#2 186623965#15 186623965#17"/>
    </vehicle>
    <vehicle id="22" depart="49.86" departSpeed="max">
        <route edges="-22959475#4 -28675510#5 -28675510#3 -28675510#0 -133081985#1 -133081985#0 -309744810#1 -133081987#2 -23686088#1 -23686088#0 155723703#0"/>
    </vehicle>
    <vehicle id="23" depart="52.12" departSpeed="max">
        <route edges="-22959475#4 -22917421#14 186623965#17"/>
    </vehicle>
    <vehicle id="24" depart="54.39" departSpeed="max">
        <route edges="160807420 -23686088#1 23686088#1 133081987#0 133081987#3 133081985#0 133081985#1 28675510#0 28675510#1 28675510#4 22959475#0"/>
    </vehicle>
    <vehicle id="26" depart="58.92" departSpeed="max">
        <route edges="-24487264 -23648008#3 -23648008#1 -23648008#0 -297047307 -297047310#3 -297047310#2 42925825#0"/>
    </vehicle>
    <vehicle id="27" depart="61.19" departSpeed="max">
        <route edges="160807420 -23686088#1 23686088#1 133081987#0 133081987#3 133081985#0 133081985#1 28675510#0 28675510#1 23840713#0 23840971"/>
    </vehicle>
    <vehicle id="28" depart="63.45" departSpeed="max">
        <route edges="-23840935 23840887#3 297047310#3 297047310#4 28675493 297047308 -8716807#6 -8716807#5 -8716807#4 23283470#3 23283470#5 24610382"/>
    </vehicle>
    <vehicle id="29" depart="65.72" departSpeed="max">
        <route edges="-23840935 23840887#3 297047310#3 22959550#0 22959550#1 22959550#3 22959550#4 28675510#1 28675510#4 22959475#0"/>
    </vehicle>
    <vehicle id="30" depart="67.99" departSpeed="max">
        <route edges="60909001 23286179#2 -23283579#1 -23283579#0 28675510#0 28675510#1 23840713#0 23840972"/>
    </vehicle>
    <vehicle id="31" depart="70.25" departSpeed="max">
        <route edges="-4936412 23686088#0 23686088#1 133081987#0 133081987#3 133081985#0 133081985#1 8716807#0 8716807#1 8716807#5 8716807#6 -297047308 -28675493 23648008#0 23648008#1 23648008#2 24487264"/>
    </vehicle>
    <vehicle id="32" depart="72.52" departSpeed="max">
        <route edges="23840712#0 23840712#1 23840712#4 22959550#4 28675510#1 28675510#4 28675510#7"/>
    </vehicle>
    <vehicle id="33" depart="74.79" departSpeed="max">
        <route edges="-23840972 23840713#2 23840712#1 23840887#0 23840887#2 23840887#3 -297047310#2 -186623965#14"/>
    </vehicle>
    <vehicle id="34" depart="77.05" departSpeed="max">
        <route edges="-24610382 24694889 -23283472#2 23283473 -23686088#0 155723703#0"/>
    </vehicle>
    <vehicle id="35" depart="79.32" departSpeed="max">
        <route edges="-23840971 23840713#2 23840712#1 23840887#0 23840887#2 23840887#3 -297047310#2 42925825#0"/>
    </vehicle>
    <vehicle id="36" depart="81.58" departSpeed="max">
        <route edges="23840888#0 23840888#1 23840887#2 23840887#3 297047310#3 297047310#4 23648008#0 23648008#1 23648008#2 225249129#0 225249129#1"/>
    </vehicle>
    <vehicle id="37" depart="83.85" departSpeed="max">
        <route edges="160807420 -23686088#1 23686088#1 133081987#0 23283436"/>
    </vehicle>
    <vehicle id="38" depart="86.12" departSpeed="max">
        <route edges="24675285 23656410#0 133081985#0 133081985#1 23283579#0 23283579#1"/>
    </vehicle>
    <vehicle id="39" depart="88.38" departSpeed="max">
        <route edges="-24487264 -23648008#3 -23648008#1 -23648008#0 28675493 297047308 -8716807#6 -8716807#5 -8716807#4 -8716807#0 -133081985#1 -133081985#0 -309744810#1 -133081987#2 -23686088#1 -23686088#0 155723703#0"/>
    </vehicle>
    <vehicle id="40" depart="90.65" departSpeed="max">
        <route edges="-4936412 155723703#0"/>
    </vehicle>
    <vehicle id="41" depart="92.92" departSpeed="max">
        <route edges="-4936412 23686088#0 23686088#1 133081987#0 133081987#3 133081985#0 133081985#1 8716807#0 8716807#1 8716807#5 8716807#6 -297047308 -28675493 23648008#0 23648008#1 323450710#0"/>
    </vehicle>
    <vehicle id="43" depart="97.45" departSpeed="max">
        <route edges="60909001 23286180"/>
    </vehicle>
    <vehicle id="45" depart="101.98" departSpeed="max">
        <route edges="-22959475#4 -28675510#5 23840713#0 23840972"/>
    </vehicle>
    <vehicle id="46" depart="104.25" departSpeed="max">
        <route edges="23647118 -8716807#5 -8716807#4 -8716807#0 -133081985#1 -133081985#0 -309744810#1 23283436"/>
    </vehicle>
    <vehicle id="47" depart="106.51" departSpeed="max">
        <route edges="-225249129#1 -225249129#0 -23648008#3 -23648008#1 -23648008#0 -297047307 22959550#0 22959550#1 22959550#3 22959550#4 28675510#1 28675510#4 22959475#0"/>
    </vehicle>
    <vehicle id="48" depart="108.78" departSpeed="max">
        <route edges="60909001 23286180"/>
    </vehicle>
    <vehicle id="49" depart="111.05" departSpeed="max">
        <route edges="60909001 23286179#2 -23283579#1 -23283579#0 8716807#0 8716807#1 8716807#5 8716807#6 -297047308 -28675493 23648008#0 23648008#1 23648008#2 225249129#0 323416262"/>
    </vehicle>
    <vehicle id="50" depart="113.31" departSpeed="max">
        <route edges="-186623965#18 22917421#5 -28675510#5 -28675510#3 -28675510#0 8716807#0 23283470#3 23283470#5 24610382"/>
    </vehicle>
    <vehicle id="51" depart="115.58" departSpeed="max">
        <route edges="186623965#9 155600123#0 297047310#3 297047310#4 28675493 297047308 -8716807#6 -8716807#5 -8716807#4 -8716807#0 23283579#0 23286179#0 23286179#1 23286180"/>
    </vehicle>
    <vehicle id="52" depart="117.84" departSpeed="max">
        <route edges="-24487264 -23648008#3 -23648008#1 -23648008#0 -297047307 22959550#0 22959550#1 22959550#3 22959550#4 28675510#1 23840713#0 23840972"/>
    </vehicle>
    <vehicle id="53" depart="120.11" departSpeed="max">
        <route edges="-23283580#1 23286179#1 23286179#2 -23283579#1 23283579#1"/>
    </vehicle>
    <vehicle id="54" depart="122.38" departSpeed="max">
        <route edges="-323450710#0 -23648008#1 -23648008#0 -297047307 -297047310#3 -297047310#2 42925825#0"/>
    </vehicle>
    <vehicle id="55" depart="124.64" departSpeed="max">
        <route edges="23840888#0 -290365598#1 23840712#1 23840712#4 22959550#4 -28675510#0 -133081985#1 -133081985#0 -309744810#1 -133081987#2 -23686088#1 -23686088#0 155723703#0"/>
    </vehicle>
    <vehicle id="56" depart="126.91" departSpeed="max">
        <route edges="-353069169#0 -225249129#0 -23648008#3 -23648008#1 -23648008#0 -297047307 22959550#0 22959550#1 22959550#3 -23840712#4 -23840712#3 290365598#0 -23840888#0"/>
    </vehicle>
    <vehicle id="57" depart="129.18" departSpeed="max">
        <route edges="24675285 23656410#0 133081985#0 133081985#1 8716807#0 8716807#1 8716807#5 8716807#6 -297047308 -28675493 23648008#0 23648008#1 23648008#2 225249129#0 323416262"/>
    </vehicle>
    <vehicle id="58" depart="131.44" departSpeed="max">
        <route edges="-24610382 24694889 -23283472#2 23283473 23686088#1 133081987#0 133081987#3 133081985#0 133081985#1 28675510#0 28675510#1 23840713#0 23840972"/>
    </vehicle>
    <vehicle id="59" depart="133.71" departSpeed="max">
        <route edges="132042183 -23283472#2 23283473 23686088#1 133081987#0 133081987#3 133081985#0 133081985#1 28675510#0 28675510#1 23840713#0 23840713#2 -23840712#0"/>
    </vehicle>
    <vehicle id="60" depart="135.97" departSpeed="max">
        <route edges="22917421#3 22917421#5 -28675510#5 23840713#0 23840713#2 23840712#1 23840887#0 23840887#2 23840935"/>
    </vehicle>
    <vehicle id="61" depart="138.24" departSpeed="max">
        <route edges="23647118 -8716807#5 -8716807#4 -8716807#0 23283579#0 23286179#0 23286179#1 23286180"/>
    </vehicle>
    <vehicle id="62" depart="140.51" departSpeed="max">
        <route edges="-186623965#18 -186623965#16 155600123#0 297047310#3 297047310#4 23648008#0 23648008#1 23648008#2 225249129#0 225249129#1"/>
    </vehicle>
    <vehicle id="63" depart="142.77" departSpeed="max">
        <route edges="-186623965#18 -186623965#16 42925825#0"/>
    </vehicle>
    <vehicle id="64" depart="145.04" departSpeed="max">
        <route edges="23840888#0 23840888#1 23840887#2 23840887#3 297047310#3 297047310#4 28675493 297047308 28675494#0 297047309#0"/>
    </vehicle>
    <vehicle id="66" depart="149.57" departSpeed="max">
        <route edges="23840888#0 23840888#1 23840887#2 23840887#3 -297047310#2 42925825#0"/>
    </vehicle>
    <vehicle id="67" depart="151.84" departSpeed="max">
        <route edges="-22959475#4 -28675510#5 -28675510#3 -28675510#0 23283579#0 23286179#0 23283580#0"/>
    </vehicle>
    <vehicle id="68" depart="154.10" departSpeed="max">
        <route edges="-225249129#1 -225249129#0 -23648008#3 -23648008#1 25166682#0"/>
    </vehicle>
    <vehicle id="69" depart="156.37" departSpeed="max">
        <route edges="22917421#3 22917421#5 -28675510#5 23840713#0 23840713#2 -23840712#0"/>
    </vehicle>
    <vehicle id="70" depart="158.64" departSpeed="max">
        <route edges="-323450710#0 -23648008#1 -23648008#0 -297047307 22959550#0 22959550#1 22959550#3 -23840712#4 23840887#0 23840887#2 23840935"/>
    </vehicle>
    <vehicle id="71" depart="160.90" departSpeed="max">
        <route edges="-24487264 225249129#0 323416262"/>
    </vehicle>
    <vehicle id="73" depart="165.44" departSpeed="max">
        <route edges="-42925825#2 155600123#0 297047310#3 297047310#4 28675493 297047308 -8716807#6 -8716807#5 -8716807#4 23283470#3 23283470#5 24610382"/>
    </vehicle>
    <vehicle id="74" depart="167.70" departSpeed="max">
        <route edges="-23840971 23840713#2 23840712#1 23840887#0 23840887#2 23840887#3 297047310#3 297047310#4 23648008#0 23648008#1 23648008#2 225249129#0 225249129#1"/>
    </vehicle>
    <vehicle id="75" depart="169.97" departSpeed="max">
        <route edges="60909001 23286179#2 -23283579#1 -23283579#0 28675510#0 28675510#1 23840713#0 23840972"/>
    </vehicle>
    <vehicle id="76" depart="172.23" departSpeed="max">
        <route edges="-297047309#0 -28675494#1 -8716807#6 -8716807#5 -8716807#4 -8716807#0 23283579#0 23286179#0 23286179#1 23286180"/>
    </vehicle>
    <vehicle id="78" depart="176.77" departSpeed="max">
        <route edges="-25166682#0 -23648008#0 -297047307 22959550#0 22959550#1 22959550#3 22959550#4 28675510#1 23840713#0 23840971"/>
    </vehicle>
    <vehicle id="80" depart="181.30" departSpeed="max">
        <route edges="-225249129#1 -225249129#0 -23648008#3 -23648008#1 -23648008#0 -297047307 22959550#0 22959550#1 22959550#3 22959550#4 28675510#1 23840713#0 23840972"/>
    </vehicle>
    <vehicle id="81" depart="183.56" departSpeed="max">
        <route edges="-23840972 23840713#2 23840712#1 23840887#0 23840887#2 23840887#3 297047310#3 297047310#4 23648008#0 23648008#1 323450710#0"/>
    </vehicle>
    <vehicle id="83" depart="188.10" departSpeed="max">
        <route edges="-23840972 23840713#2 23840712#1 23840887#0 23840887#2 23840887#3 297047310#3 297047310#4 23648008#0 23648008#1 23648008#2 24487264"/>
    </vehicle>
    <vehicle id="84" depart="190.36" departSpeed="max">
        <route edges="-23840971 23840713#2 -23840712#0"/>
    </vehicle>
    <vehicle id="86" depart="194.90" departSpeed="max">
        <route edges="-323450710#0 -23648008#1 -23648008#0 -297047307 22959550#0 22959550#1 22959550#3 22959550#4 28675510#1 28675510#4 28675510#7"/>
    </vehicle>
    <vehicle id="87" depart="197.16" departSpeed="max">
        <route edges="23647118 -8716807#5 22959552#4 22959552#5 22959550#3 -23840712#4 -23840712#3 290365598#0 -23840888#0"/>
    </vehicle>
    <vehicle id="88" depart="199.43" departSpeed="max">
        <route edges="-22959475#4 -28675510#5 -28675510#3 -28675510#0 23283579#0 23283579#1"/>
    </vehicle>
    <vehicle id="89" depart="201.69" departSpeed="max">
        <route edges="-297047309#0 -28675494#1 -8716807#6 -8716807#5 -8716807#4 -8716807#0 23283579#0 23286179#0 23283580#0"/>
    </vehicle>
    <vehicle id="91" depart="206.23" departSpeed="max">
        <route edges="60909001 23286179#2 -23283579#1 -23283579#0 28675510#0 28675510#1 28675510#4 -22917421#14 -22917421#4"/>
    </vehicle>
    <vehicle id="92" depart="208.49" departSpeed="max">
        <route edges="-28675510#11 -28675510#5 -28675510#3 -28675510#0 8716807#0 8716807#1 8716807#5 8716807#6 -297047308 -28675493 23648008#0 23648008#1 23648008#2 225249129#0 225249129#1"/>
    </vehicle>
    <vehicle id="93" depart="210.76" departSpeed="max">
        <route edges="23840888#0 -290365598#1 23840712#1 23840712#4 22959550#4 -28675510#0 -133081985#1 -133081985#0 -309744810#1 -133081987#2 -23686088#1 -23686088#0 155723703#0"/>
    </vehicle>
    <vehicle id="94" depart="213.03" departSpeed="max">
        <route edges="-23840971 23840713#2 23840712#1 23840712#4 22959550#4 -28675510#0 23283579#0 23283579#1"/>
    </vehicle>
    <vehicle id="95" depart="215.29" departSpeed="max">
        <route edges="-297047309#0 -28675494#1 -297047308 -28675493 -297047307 -297047310#3 -297047310#2 186623965#15 186623965#17"/>
    </vehicle>
    <vehicle id="96" depart="217.56" departSpeed="max">
        <route edges="-23840972 23840713#2 23840712#1 23840887#0 23840887#2 23840887#3 -297047310#2 42925825#0"/>
    </vehicle>
    <vehicle id="97" depart="219.82" departSpeed="max">
        <route edges="-297047309#0 -28675494#1 -297047308 -28675493 23648008#0 23648008#1 23648008#2 225249129#0 323416262"/>
    </vehicle>
    <vehicle id="99" depart="224.36" departSpeed="max">
        <route edges="60909001 23286179#2 -23283579#1 -23283579#0 8716807#0 8716807#1 8716807#5 8716807#6 28675494#0 297047309#0"/>
    </vehicle>
    <vehicle id="100" depart="226.62" departSpeed="max">
        <route edges="60909001 23286179#2 -23283579#1 -23283579#0 8716807#0 8716807#1 8716807#5 8716807#6 -297047308 -28675493 -297047307 -297047310#3 -297047310#2 42925825#0"/>
    </vehicle>
    <vehicle id="101" depart="228.89" departSpeed="max">
        <route edges="23840712#0 290365598#0 -23840888#0"/>
    </vehicle>
    <vehicle id="104" depart="235.69" departSpeed="max">
        <route edges="-28675510#11 -28675510#5 -28675510#3 -28675510#0 -133081985#1 -133081985#0 -309744810#1 -133081987#2 -23686088#1 -23686088#0 4936412"/>
    </vehicle>
    <vehicle id="105" depart="237.95" departSpeed="max">
        <route edges="-24487264 -23648008#3 -23648008#1 -23648008#0 -297047307 22959550#0 22959550#1 22959550#3 22959550#4 28675510#1 28675510#4 28675510#7"/>
    </vehicle>
    <vehicle id="106" depart="240.22" departSpeed="max">
        <route edges="-323450710#0 -23648008#1 -23648008#0 28675493 297047308 -8716807#6 -8716807#5 -8716807#4 -8716807#0 -133081985#1 -133081985#0 -309744810#1 23283436"/>
    </vehicle>
    <vehicle id="108" depart="244.75" departSpeed="max">
        <route edges="-4936412 23686088#0 23686088#1 133081987#0 133081987#3 133081985#0 133081985#1 8716807#0 23283470#3 23283470#5 24610382"/>
    </vehicle>
    <vehicle id="109" depart="247.02" departSpeed="max">
        <route edges="-23840935 23840887#3 -297047310#2 186623965#15 186623965#17"/>
    </vehicle>
    <vehicle id="110" depart="249.29" departSpeed="max">
        <route edges="60909001 23286179#2 -23283579#1 -23283579#0 28675510#0 28675510#1 23840713#0 23840971"/>
    </vehicle>
    <vehicle id="111" depart="251.55" departSpeed="max">
        <route edges="-42925825#2 155600123#0 297047310#3 297047310#4 23648008#0 25166682#0"/>
    </vehicle>
    <vehicle id="112" depart="253.82" departSpeed="max">
        <route edges="-225249129#1 -225249129#0 -23648008#3 -23648008#1 -23648008#0 -297047307 22959550#0 22959550#1 22959550#3 22959550#4 28675510#1 23840713#0 23840971"/>
    </vehicle>
    <vehicle id="113" depart="256.08" departSpeed="max">
        <route edges="-353069169#0 323416262"/>
    </vehicle>
    <vehicle id="114" depart="258.35" departSpeed="max">
        <route edges="-23840935 23840887#3 -297047310#2 42925825#0"/>
    </vehicle>
    <vehicle id="115" depart="260.62" departSpeed="max">
        <route edges="-22959475#4 -28675510#5 23840713#0 23840713#2 290365598#0 -23840888#0"/>
    </vehicle>
    <vehicle id="116" depart="262.88" departSpeed="max">
        <route edges="132042183 -132042183 22959552#0 22959552#1 22959552#2 8716807#5 8716807#6 -297047308 -28675493 23648008#0 23648008#1 23648008#2 24487264"/>
    </vehicle>
    <vehicle id="117" depart="265.15" departSpeed="max">
        <route edges="-23840972 23840713#2 -23840712#0"/>
    </vehicle>
    <vehicle id="118" depart="267.42" departSpeed="max">
        <route edges="24675285 23656410#0 -309744810#1 -133081987#2 -23686088#1 -23686088#0 155723703#0"/>
    </vehicle>
    <vehicle id="119" depart="269.68" departSpeed="max">
        <route edges="132042183 -23283472#2 23283473 23686088#1 133081987#0 133081987#3 133081985#0 133081985#1 28675510#0 28675510#1 23840713#0 23840972"/>
    </vehicle>
    <vehicle id="120" depart="271.95" departSpeed="max">
        <route edges="-297047309#0 -28675494#1 -8716807#6 -8716807#5 -8716807#4 -8716807#0 28675510#0 28675510#1 23840713#0 23840971"/>
    </vehicle>
    <vehicle id="121" depart="274.21" departSpeed="max">
        <route edges="-42925825#2 42925825#0"/>
    </vehicle>
    <vehicle id="122" depart="276.48" departSpeed="max">
        <route edges="-23840971 23840713#2 23840712#1 23840712#4 23283470#0 23283470#2 23283470#3 23283470#5 24610382"/>
    </vehicle>
    <vehicle id="123" depart="278.75" departSpeed="max">
        <route edges="-23840972 23840713#2 23840712#1 23840712#4 22959550#4 -28675510#0 -133081985#1 -133081985#0 -309744810#1 23283436"/>
    </vehicle>
    <vehicle id="124" depart="281.01" departSpeed="max">
        <route edges="186623965#9 186623965#15 186623965#17"/>
    </vehicle>
    <vehicle id="125" depart="283.28" departSpeed="max">
        <route edges="-24610382 24694889 -132042183 22959552#0 22959552#1 22959552#2 8716807#5 8716807#6 -297047308 -28675493 23648008#0 25166682#0"/>
    </vehicle>
    <vehicle id="126" depart="285.55" departSpeed="max">
        <route edges="-225249129#1 -225249129#0 -23648008#3 -23648008#1 -23648008#0 28675493 297047308 -8716807#6 -8716807#5 -8716807#4 -8716807#0 23283579#0 23283579#1"/>
    </vehicle>
    <vehicle id="127" depart="287.81" departSpeed="max">
        <route edges="60909001 23286179#2 -23283579#1 -23283579#0 -133081985#1 -133081985#0 -309744810#1 -133081987#2 -23686088#1 -23686088#0 4936412"/>
    </vehicle>
    <vehicle id="129" depart="292.34" departSpeed="max">
        <route edges="-24487264 -23648008#3 -23648008#1 -23648008#0 -297047307 -297047310#3 -297047310#2 42925825#0"/>
    </vehicle>
    <vehicle id="130" depart="294.61" departSpeed="max">
        <route edges="23840888#0 23840888#1 23840887#2 23840887#3 297047310#3 297047310#4 23648008#0 23648008#1 23648008#2 225249129#0 323416262"/>
    </vehicle>
    <vehicle id="131" depart="296.88" departSpeed="max">
        <route edges="-25166682#0 -23648008#0 -297047307 22959550#0 22959550#1 22959550#3 -23840712#4 -23840712#3 290365598#0 -23840888#0"/>
    </vehicle>
    <vehicle id="132" depart="299.14" departSpeed="max">
        <route edges="23840712#0 23840712#1 23840712#4 23283470#0 23283470#2 23283470#3 23283470#5 24610382"/>
    </vehicle>
    <vehicle id="133" depart="301.41" departSpeed="max">
        <route edges="132042183 -23283472#2 23283473 -23686088#0 4936412"/>
    </vehicle>
    <vehicle id="134" depart="303.68" departSpeed="max">
        <route edges="160807420 -23686088#1 23686088#1 133081987#0 133081987#3 133081985#0 133081985#1 28675510#0 28675510#1 28675510#4 -22917421#14 -186623965#16 -186623965#14"/>
    </vehicle>
    <vehicle id="135" depart="305.94" departSpeed="max">
        <route edges="23840712#0 290365598#0 23840888#1 23840887#2 23840887#3 -297047310#2 186623965#15 186623965#17"/>
    </vehicle>
    <vehicle id="136" depart="308.21" departSpeed="max">
        <route edges="160807420 -23686088#1 23686088#1 133081987#0 133081987#3 133081985#0 133081985#1 8716807#0 8716807#1 8716807#5 8716807#6 -297047308 -28675493 -297047307 -297047310#3 -297047310#2 42925825#0"/>
    </vehicle>
    <vehicle id="137" depart="310.47" departSpeed="max">
        <route edges="-23283580#1 23286179#1 23286179#2 -23283579#1 -23283579#0 28675510#0 28675510#1 23840713#0 23840713#2 -23840712#0"/>
    </vehicle>
    <vehicle id="138" depart="312.74" departSpeed="max">
        <route edges="-22959475#4 -28675510#5 23840713#0 23840713#2 23840712#1 23840887#0 23840887#2 23840935"/>
    </vehicle>
    <vehicle id="139" depart="315.01" departSpeed="max">
        <route edges="-24487264 -23648008#3 -23648008#1 -23648008#0 -297047307 22959550#0 22959550#1 22959550#3 22959550#4 28675510#1 23840713#0 23840971"/>
    </vehicle>
    <vehicle id="140" depart="317.27" departSpeed="max">
        <route edges="194017408#0 -25168493"/>
    </vehicle>
    <vehicle id="141" depart="319.54" departSpeed="max">
        <route edges="160807420 -23686088#1 -23686088#0 155723703#0"/>
    </vehicle>
    <vehicle id="142" depart="321.81" departSpeed="max">
        <route edges="-353069169#0 -225249129#0 -23648008#3 323450710#0"/>
    </vehicle>
    <vehicle id="143" depart="324.07" departSpeed="max">
        <route edges="23840712#0 290365598#0 23840888#1 23840887#2 23840887#3 -297047310#2 186623965#15 -22917421#4"/>
    </vehicle>
    <vehicle id="144" depart="326.34" departSpeed="max">
        <route edges="-297047309#0 -28675494#1 -297047308 -28675493 -297047307 -297047310#3 -297047310#2 186623965#15 186623965#17"/>
    </vehicle>
    <vehicle id="145" depart="328.60" departSpeed="max">
        <route edges="-186623965#18 22917421#5 28675510#7"/>
    </vehicle>
    <vehicle id="146" depart="330.87" departSpeed="max">
        <route edges="160807420 -23686088#1 -23686088#0 155723703#0"/>
    </vehicle>
    <vehicle id="147" depart="333.14" departSpeed="max">
        <route edges="22917421#3 22917421#5 -28675510#5 23840713#0 23840713#2 23840712#1 23840887#0 23840887#2 23840935"/>
    </vehicle>
    <vehicle id="148" depart="335.40" departSpeed="max">
        <route edges="-297047309#0 -28675494#1 -297047308 -28675493 -297047307 -297047310#3 -297047310#2 -186623965#14"/>
    </vehicle>
    <vehicle id="149" depart="337.67" departSpeed="max">
        <route edges="-22959475#4 -28675510#5 -28675510#3 -28675510#0 8716807#0 8716807#1 8716807#5 8716807#6 -297047308 -28675493 23648008#0 23648008#1 23648008#2 225249129#0 323416262"/>
    </vehicle>
    <vehicle id="150" depart="339.93" departSpeed="max">
        <route edges="24675285 23656410#0 133081985#0 133081985#1 28675510#0 28675510#1 23840713#0 23840713#2 23840712#1 23840887#0 23840887#2 23840935"/>
    </vehicle>
    <vehicle id="151" depart="342.20" departSpeed="max">
        <route edges="23840712#0 23840712#1 23840712#4 22959550#4 28675510#1 23840713#0 23840971"/>
    </vehicle>
    <vehicle id="152" depart="344.47" departSpeed="max">
        <route edges="-23283580#1 23286179#1 23286179#2 -23283579#1 -23283579#0 28675510#0 28675510#1 23840713#0 23840713#2 -23840712#0"/>
    </vehicle>
    <vehicle id="153" depart="346.73" departSpeed="max">
        <route edges="-24610382 24694889 -132042183 22959552#0 22959552#1 22959552#2 8716807#5 8716807#6 -297047308 -28675493 23648008#0 23648008#1 323450710#0"/>
    </vehicle>
    <vehicle id="154" depart="349.00" departSpeed="max">
        <route edges="23647118 8716807#6 -297047308 -28675493 23648008#0 23648008#1 23648008#2 225249129#0 323416262"/>
    </vehicle>
    <vehicle id="156" depart="353.53" departSpeed="max">
        <route edges="-23840972 23840713#2 23840712#1 23840887#0 23840887#2 23840887#3 -297047310#2 186623965#15 -22917421#4"/>
    </vehicle>
    <vehicle id="157" depart="355.80" departSpeed="max">
        <route edges="23647118 8716807#6 -297047308 -28675493 23648008#0 23648008#1 23648008#2 225249129#0 323416262"/>
    </vehicle>
    <vehicle id="158" depart="358.06" departSpeed="max">
        <route edges="-28675510#11 -28675510#5 23840713#0 23840972"/>
    </vehicle>
    <vehicle id="159" depart="360.33" departSpeed="max">
        <route edges="-23840935 23840887#3 -297047310#2 42925825#0"/>
    </vehicle>
    <vehicle id="160" depart="362.60" departSpeed="max">
        <route edges="23840888#0 -290365598#1 23840712#1 23840712#4 22959550#4 -28675510#0 -133081985#1 -133081985#0 -309744810#1 -133081987#2 -23686088#1 -23686088#0 4936412"/>
    </vehicle>
    <vehicle id="161" depart="364.86" departSpeed="max">
        <route edges="23647118 8716807#6 -297047308 -28675493 23648008#0 23648008#1 23648008#2 225249129#0 323416262"/>
    </vehicle>
    <vehicle id="162" depart="367.13" departSpeed="max">
        <route edges="-186623965#18 -186623965#16 155600123#0 297047310#3 297047310#4 23648008#0 25166682#0"/>
    </vehicle>
    <vehicle id="163" depart="369.40" departSpeed="max">
        <route edges="-24610382 24694889 -132042183 22959552#0 22959552#1 22959552#2 8716807#5 8716807#6 -297047308 -28675493 -297047307 -297047310#3 -297047310#2 42925825#0"/>
    </vehicle>
    <vehicle id="164" depart="371.66" departSpeed="max">
        <route edges="23647118 8716807#6 -297047308 -28675493 23648008#0 23648008#1 23648008#2 225249129#0 323416262"/>
    </vehicle>
    <vehicle id="165" depart="373.93" departSpeed="max">
        <route edges="23647118 -8716807#5 -8716807#4 -8716807#0 -133081985#1 -133081985#0 -309744810#1 -133081987#2 -23686088#1 -23686088#0 155723703#0"/>
    </vehicle>