<?xml version="1.0" encoding="UTF-8"?>

<!-- generated on 2023-04-14 02:40:54.433450 by randomTrips.py v1_16_0+0000-94ec4c6cd72
<configuration>
    <begin value="0"/>
    <end value="3600"/>
    <fringe-factor value="max"/>
    <net-file value=".\sumo_data\18x3lane\18x3lane.net.xml"/>
    <period value="2.0 1.0 0.5"/>
    <route-file value=".\sumo_data\18x3lane\18x3_waves_3600.rou.xml"/>
    <trip-attributes value="departSpeed='max'"/>
</configuration>
-->

<!-- generated on 2023-04-14 02:40:54 by Eclipse SUMO duarouter Version 1.16.0
<configuration xmlns:xsi="http://www.w3.org/2001/XMLSchema-instance" xsi:noNamespaceSchemaLocation="http://sumo.dlr.de/xsd/duarouterConfiguration.xsd">

    <input>
        <net-file value=".\sumo_data\18x3lane\18x3lane.net.xml"/>
        <route-files value="trips.trips.xml"/>
    </input>

    <output>
        <output-file value=".\sumo_data\18x3lane\18x3_waves_3600.rou.xml"/>
        <alternatives-output value="NUL"/>
    </output>

    <time>
        <begin value="0"/>
        <end value="3600"/>
    </time>

    <report>
        <no-warnings value="true"/>
        <ignore-errors value="true"/>
        <no-step-log value="true"/>
    </report>

</configuration>
-->

<routes xmlns:xsi="http://www.w3.org/2001/XMLSchema-instance" xsi:noNamespaceSchemaLocation="http://sumo.dlr.de/xsd/routes_file.xsd">
    <vehicle id="0" depart="0.00" departSpeed="max">
        <route edges="E3736 E3635 E3534 E3433 E3332 E3231 E3121 E2111 E1101"/>
    </vehicle>
    <vehicle id="1" depart="2.00" departSpeed="max">
        <route edges="E0515 E1514 E1404"/>
    </vehicle>
    <vehicle id="2" depart="4.00" departSpeed="max">
        <route edges="E4232 E3231 E3121 E2122 E2232 E3242"/>
    </vehicle>
    <vehicle id="3" depart="6.00" departSpeed="max">
        <route edges="E4535 E3525 E2515 E1514 E1413 E1312 E1211 E1110"/>
    </vehicle>
    <vehicle id="4" depart="8.00" departSpeed="max">
        <route edges="E1716 E1615 E1514 E1413 E1312 E1211 E1101"/>
    </vehicle>
    <vehicle id="5" depart="10.00" departSpeed="max">
        <route edges="E0414 E1424 E2425 E2526 E2627"/>
    </vehicle>
    <vehicle id="6" depart="12.00" departSpeed="max">
        <route edges="E0111 E1112 E1213 E1303"/>
    </vehicle>
    <vehicle id="7" depart="14.00" departSpeed="max">
        <route edges="E3736 E3626 E2627"/>
    </vehicle>
    <vehicle id="8" depart="16.00" departSpeed="max">
        <route edges="E0414 E1424 E2434 E3433 E3332 E3231 E3130"/>
    </vehicle>
    <vehicle id="9" depart="18.00" departSpeed="max">
        <route edges="E4333 E3332 E3231 E3121 E2111 E1101"/>
    </vehicle>
    <vehicle id="10" depart="20.00" departSpeed="max">
        <route edges="E4333 E3332 E3242"/>
    </vehicle>
    <vehicle id="11" depart="22.00" departSpeed="max">
        <route edges="E1011 E1112 E1202"/>
    </vehicle>
    <vehicle id="12" depart="24.00" departSpeed="max">
        <route edges="E4636 E3626 E2616 E1606"/>
    </vehicle>
    <vehicle id="13" depart="26.00" departSpeed="max">
        <route edges="E0212 E1211 E1110"/>
    </vehicle>
    <vehicle id="14" depart="28.00" departSpeed="max">
        <route edges="E4434 E3433 E3332 E3231 E3130"/>
    </vehicle>
    <vehicle id="15" depart="30.00" departSpeed="max">
        <route edges="E4333 E3332 E3222 E2223 E2333 E3343"/>
    </vehicle>
    <vehicle id="16" depart="32.00" departSpeed="max">
        <route edges="E2726 E2636 E3646"/>
    </vehicle>
    <vehicle id="17" depart="34.00" departSpeed="max">
        <route edges="E1011 E1112 E1213 E1314 E1415 E1516 E1626 E2627"/>
    </vehicle>
    <vehicle id="18" depart="36.00" departSpeed="max">
        <route edges="E4333 E3332 E3231 E3141"/>
    </vehicle>
    <vehicle id="19" depart="38.00" departSpeed="max">
        <route edges="E4434 E3433 E3332 E3231 E3130"/>
    </vehicle>
    <vehicle id="20" depart="40.00" departSpeed="max">
        <route edges="E4131 E3121 E2111 E1101"/>
    </vehicle>
    <vehicle id="21" depart="42.00" departSpeed="max">
        <route edges="E0515 E1516 E1626 E2625 E2515 E1505"/>
    </vehicle>
    <vehicle id="22" depart="44.00" departSpeed="max">
        <route edges="E0212 E1213 E1314 E1404"/>
    </vehicle>
    <vehicle id="23" depart="46.00" departSpeed="max">
        <route edges="E0212 E1213 E1314 E1415 E1505"/>
    </vehicle>
    <vehicle id="24" depart="48.00" departSpeed="max">
        <route edges="E3736 E3626 E2616 E1606"/>
    </vehicle>
    <vehicle id="25" depart="50.00" departSpeed="max">
        <route edges="E1011 E1112 E1213 E1303"/>
    </vehicle>
    <vehicle id="26" depart="52.00" departSpeed="max">
        <route edges="E0515 E1525 E2535 E3536 E3637"/>
    </vehicle>
    <vehicle id="27" depart="54.00" departSpeed="max">
        <route edges="E3736 E3635 E3534 E3433 E3332 E3231 E3130"/>
    </vehicle>
    <vehicle id="28" depart="56.00" departSpeed="max">
        <route edges="E0414 E1424 E2423 E2333 E3343"/>
    </vehicle>
    <vehicle id="29" depart="58.00" departSpeed="max">
        <route edges="E0313 E1314 E1415 E1516 E1606"/>
    </vehicle>
    <vehicle id="30" depart="60.00" departSpeed="max">
        <route edges="E4636 E3635 E3534 E3433 E3332 E3231 E3141"/>
    </vehicle>
    <vehicle id="31" depart="62.00" departSpeed="max">
        <route edges="E3031 E3132 E3242"/>
    </vehicle>
    <vehicle id="32" depart="64.00" departSpeed="max">
        <route edges="E4434 E3433 E3343"/>
    </vehicle>
    <vehicle id="33" depart="66.00" departSpeed="max">
        <route edges="E0515 E1514 E1413 E1312 E1211 E1101"/>
    </vehicle>
    <vehicle id="34" depart="68.00" departSpeed="max">
        <route edges="E0616 E1615 E1514 E1404"/>
    </vehicle>
    <vehicle id="35" depart="70.00" departSpeed="max">
        <route edges="E0414 E1424 E2434 E3435 E3536 E3637"/>
    </vehicle>
    <vehicle id="36" depart="72.00" departSpeed="max">
        <route edges="E4434 E3435 E3525 E2515 E1505"/>
    </vehicle>
    <vehicle id="37" depart="74.00" departSpeed="max">
        <route edges="E3736 E3626 E2616 E1617"/>
    </vehicle>
    <vehicle id="38" depart="76.00" departSpeed="max">
        <route edges="E4535 E3525 E2524 E2423 E2322 E2221 E2120"/>
    </vehicle>
    <vehicle id="39" depart="78.00" departSpeed="max">
        <route edges="E0515 E1514 E1404"/>
    </vehicle>
    <vehicle id="40" depart="80.00" departSpeed="max">
        <route edges="E3031 E3132 E3233 E3334 E3424 E2414 E1404"/>
    </vehicle>
    <vehicle id="41" depart="82.00" departSpeed="max">
        <route edges="E3031 E3132 E3233 E3334 E3435 E3536 E3637"/>
    </vehicle>
    <vehicle id="42" depart="84.00" departSpeed="max">
        <route edges="E1716 E1615 E1514 E1413 E1303"/>
    </vehicle>
    <vehicle id="43" depart="86.00" departSpeed="max">
        <route edges="E4636 E3626 E2627"/>
    </vehicle>
    <vehicle id="44" depart="88.00" departSpeed="max">
        <route edges="E0212 E1211 E1101"/>
    </vehicle>
    <vehicle id="45" depart="90.00" departSpeed="max">
        <route edges="E0212 E1211 E1121 E2131 E3141"/>
    </vehicle>
    <vehicle id="46" depart="92.00" departSpeed="max">
        <route edges="E4333 E3323 E2313 E1314 E1415 E1516 E1617"/>
    </vehicle>
    <vehicle id="47" depart="94.00" departSpeed="max">
        <route edges="E0212 E1213 E1314 E1415 E1516 E1606"/>
    </vehicle>
    <vehicle id="48" depart="96.00" departSpeed="max">
        <route edges="E4636 E3626 E2627"/>
    </vehicle>
    <vehicle id="49" depart="98.00" departSpeed="max">
        <route edges="E4636 E3635 E3545"/>
    </vehicle>
    <vehicle id="50" depart="100.00" departSpeed="max">
        <route edges="E0111 E1112 E1222 E2232 E3242"/>
    </vehicle>
    <vehicle id="51" depart="102.00" departSpeed="max">
        <route edges="E4131 E3121 E2122 E2223 E2324 E2425 E2526 E2627"/>
    </vehicle>
    <vehicle id="52" depart="104.00" departSpeed="max">
        <route edges="E0515 E1525 E2535 E3534 E3433 E3332 E3231 E3141"/>
    </vehicle>
    <vehicle id="53" depart="106.00" departSpeed="max">
        <route edges="E0313 E1314 E1415 E1516 E1617"/>
    </vehicle>
    <vehicle id="54" depart="108.00" departSpeed="max">
        <route edges="E2021 E2122 E2223 E2324 E2425 E2526 E2636 E3646"/>
    </vehicle>
    <vehicle id="55" depart="110.00" departSpeed="max">
        <route edges="E4434 E3424 E2414 E1404"/>
    </vehicle>
    <vehicle id="56" depart="112.00" departSpeed="max">
        <route edges="E2726 E2625 E2524 E2423 E2313 E1303"/>
    </vehicle>
    <vehicle id="57" depart="114.00" departSpeed="max">
        <route edges="E4535 E3534 E3424 E2425 E2535 E3545"/>
    </vehicle>
    <vehicle id="58" depart="116.00" departSpeed="max">
        <route edges="E0616 E1626 E2625 E2524 E2423 E2322 E2221 E2131 E3141"/>
    </vehicle>
    <vehicle id="59" depart="118.00" departSpeed="max">
        <route edges="E3031 E3132 E3222 E2212 E1202"/>
    </vehicle>
    <vehicle id="60" depart="120.00" departSpeed="max">
        <route edges="E4232 E3222 E2223 E2324 E2425 E2526 E2627"/>
    </vehicle>
    <vehicle id="61" depart="122.00" departSpeed="max">
        <route edges="E4333 E3323 E2324 E2425 E2526 E2627"/>
    </vehicle>
    <vehicle id="62" depart="124.00" departSpeed="max">
        <route edges="E0111 E1112 E1213 E1314 E1415 E1505"/>
    </vehicle>
    <vehicle id="63" depart="126.00" departSpeed="max">
        <route edges="E0111 E1121 E2131 E3132 E3233 E3334 E3435 E3536 E3637"/>
    </vehicle>
    <vehicle id="64" depart="128.00" departSpeed="max">
        <route edges="E4434 E3424 E2425 E2535 E3534 E3444"/>
    </vehicle>
    <vehicle id="65" depart="130.00" departSpeed="max">
        <route edges="E0616 E1615 E1514 E1413 E1312 E1211 E1110"/>
    </vehicle>
    <vehicle id="66" depart="132.00" departSpeed="max">
        <route edges="E4434 E3435 E3536 E3646"/>
    </vehicle>
    <vehicle id="67" depart="134.00" departSpeed="max">
        <route edges="E0212 E1222 E2221 E2120"/>
    </vehicle>
    <vehicle id="68" depart="136.00" departSpeed="max">
        <route edges="E0212 E1213 E1323 E2333 E3343"/>
    </vehicle>
    <vehicle id="69" depart="138.00" departSpeed="max">
        <route edges="E4232 E3222 E2212 E1202"/>
    </vehicle>
    <vehicle id="70" depart="140.00" departSpeed="max">
        <route edges="E2021 E2122 E2223 E2324 E2425 E2526 E2627"/>
    </vehicle>
    <vehicle id="71" depart="142.00" departSpeed="max">
        <route edges="E0515 E1525 E2535 E3545"/>
    </vehicle>
    <vehicle id="72" depart="144.00" departSpeed="max">
        <route edges="E1716 E1615 E1514 E1413 E1303"/>
    </vehicle>
    <vehicle id="73" depart="146.00" departSpeed="max">
        <route edges="E2726 E2625 E2524 E2423 E2333 E3343"/>
    </vehicle>
    <vehicle id="74" depart="148.00" departSpeed="max">
        <route edges="E0414 E1415 E1505"/>
    </vehicle>
    <vehicle id="75" depart="150.00" departSpeed="max">
        <route edges="E4636 E3635 E3534 E3433 E3332 E3231 E3141"/>
    </vehicle>
    <vehicle id="76" depart="152.00" departSpeed="max">
        <route edges="E1716 E1626 E2627"/>
    </vehicle>
    <vehicle id="77" depart="154.00" departSpeed="max">
        <route edges="E0313 E1314 E1404"/>
    </vehicle>
    <vehicle id="78" depart="156.00" departSpeed="max">
        <route edges="E1011 E1121 E2131 E3130"/>
    </vehicle>
    <vehicle id="79" depart="158.00" departSpeed="max">
        <route edges="E0515 E1514 E1413 E1303"/>
    </vehicle>
    <vehicle id="80" depart="160.00" departSpeed="max">
        <route edges="E0212 E1211 E1121 E2131 E3141"/>
    </vehicle>
    <vehicle id="81" depart="162.00" departSpeed="max">
        <route edges="E0515 E1525 E2535 E3536 E3637"/>
    </vehicle>
    <vehicle id="82" depart="164.00" departSpeed="max">
        <route edges="E4434 E3424 E2414 E1413 E1312 E1211 E1110"/>
    </vehicle>
    <vehicle id="83" depart="166.00" departSpeed="max">
        <route edges="E0515 E1514 E1413 E1312 E1222 E2232 E3242"/>
    </vehicle>
    <vehicle id="84" depart="168.00" departSpeed="max">
        <route edges="E0414 E1413 E1312 E1202"/>
    </vehicle>
    <vehicle id="85" depart="170.00" departSpeed="max">
        <route edges="E4535 E3534 E3433 E3332 E3231 E3130"/>
    </vehicle>
    <vehicle id="86" depart="172.00" departSpeed="max">
        <route edges="E2021 E2122 E2223 E2324 E2434 E3444"/>
    </vehicle>
    <vehicle id="87" depart="174.00" departSpeed="max">
        <route edges="E4333 E3323 E2313 E1303"/>
    </vehicle>
    <vehicle id="88" depart="176.00" departSpeed="max">
        <route edges="E0212 E1213 E1314 E1415 E1516 E1617"/>
    </vehicle>
    <vehicle id="89" depart="178.00" departSpeed="max">
        <route edges="E1716 E1626 E2625 E2524 E2423 E2322 E2221 E2120"/>
    </vehicle>
    <vehicle id="90" depart="180.00" departSpeed="max">
        <route edges="E4232 E3231 E3121 E2122 E2232 E3242"/>
    </vehicle>
    <vehicle id="91" depart="182.00" departSpeed="max">
        <route edges="E4636 E3626 E2616 E1615 E1514 E1413 E1312 E1211 E1110"/>
    </vehicle>
    <vehicle id="92" depart="184.00" departSpeed="max">
        <route edges="E1716 E1606"/>
    </vehicle>
    <vehicle id="93" depart="186.00" departSpeed="max">
        <route edges="E4434 E3424 E2414 E1404"/>
    </vehicle>
    <vehicle id="94" depart="188.00" departSpeed="max">
        <route edges="E0414 E1424 E2423 E2322 E2221 E2120"/>
    </vehicle>
    <vehicle id="95" depart="190.00" departSpeed="max">
        <route edges="E1716 E1615 E1505"/>
    </vehicle>
    <vehicle id="96" depart="192.00" departSpeed="max">
        <route edges="E0515 E1525 E2535 E3536 E3637"/>
    </vehicle>
    <vehicle id="97" depart="194.00" departSpeed="max">
        <route edges="E1716 E1615 E1525 E2535 E3545"/>
    </vehicle>
    <vehicle id="98" depart="196.00" departSpeed="max">
        <route edges="E2726 E2625 E2524 E2423 E2322 E2221 E2111 E1101"/>
    </vehicle>
    <vehicle id="99" depart="198.00" departSpeed="max">
        <route edges="E4636 E3635 E3545"/>
    </vehicle>
    <vehicle id="100" depart="200.00" departSpeed="max">
        <route edges="E4636 E3637"/>
    </vehicle>
    <vehicle id="101" depart="202.00" departSpeed="max">
        <route edges="E4434 E3433 E3332 E3222 E2212 E1202"/>
    </vehicle>
    <vehicle id="102" depart="204.00" departSpeed="max">
        <route edges="E2021 E2122 E2223 E2313 E1303"/>
    </vehicle>
    <vehicle id="103" depart="206.00" departSpeed="max">
        <route edges="E1716 E1615 E1514 E1413 E1312 E1211 E1110"/>
    </vehicle>
    <vehicle id="104" depart="208.00" departSpeed="max">
        <route edges="E1011 E1112 E1213 E1314 E1415 E1516 E1626 E2636 E3646"/>
    </vehicle>
    <vehicle id="105" depart="210.00" departSpeed="max">
        <route edges="E0515 E1514 E1424 E2434 E3444"/>
    </vehicle>
    <vehicle id="106" depart="212.00" departSpeed="max">
        <route edges="E2021 E2111 E1112 E1213 E1314 E1415 E1516 E1617"/>
    </vehicle>
    <vehicle id="107" depart="214.00" departSpeed="max">
        <route edges="E4636 E3635 E3525 E2526 E2636 E3646"/>
    </vehicle>
    <vehicle id="108" depart="216.00" departSpeed="max">
        <route edges="E3031 E3132 E3242"/>
    </vehicle>
    <vehicle id="109" depart="218.00" departSpeed="max">
        <route edges="E0313 E1314 E1415 E1505"/>
    </vehicle>
    <vehicle id="110" depart="220.00" departSpeed="max">
        <route edges="E4636 E3635 E3534 E3433 E3332 E3231 E3130"/>
    </vehicle>
    <vehicle id="111" depart="222.00" departSpeed="max">
        <route edges="E2726 E2625 E2524 E2423 E2333 E3343"/>
    </vehicle>
    <vehicle id="112" depart="224.00" departSpeed="max">
        <route edges="E0212 E1222 E2232 E3231 E3130"/>
    </vehicle>
    <vehicle id="113" depart="226.00" departSpeed="max">
        <route edges="E2726 E2625 E2535 E3545"/>
    </vehicle>
    <vehicle id="114" depart="228.00" departSpeed="max">
        <route edges="E0313 E1314 E1415 E1516 E1626 E2636 E3646"/>
    </vehicle>
    <vehicle id="115" depart="230.00" departSpeed="max">
        <route edges="E0212 E1213 E1303"/>
    </vehicle>
    <vehicle id="116" depart="232.00" departSpeed="max">
        <route edges="E3031 E3132 E3242"/>
    </vehicle>
    <vehicle id="117" depart="234.00" departSpeed="max">
        <route edges="E0515 E1514 E1413 E1312 E1202"/>
    </vehicle>
    <vehicle id="118" depart="236.00" departSpeed="max">
        <route edges="E4535 E3534 E3424 E2414 E1404"/>
    </vehicle>
    <vehicle id="119" depart="238.00" departSpeed="max">
        <route edges="E3031 E3141"/>
    </vehicle>
    <vehicle id="120" depart="240.00" departSpeed="max">
        <route edges="E1716 E1615 E1514 E1413 E1323 E2333 E3332 E3231 E3130"/>
    </vehicle>
    <vehicle id="121" depart="242.00" departSpeed="max">
        <route edges="E2726 E2636 E3637"/>
    </vehicle>
    <vehicle id="122" depart="244.00" departSpeed="max">
        <route edges="E0414 E1424 E2423 E2322 E2232 E3242"/>
    </vehicle>
    <vehicle id="123" depart="246.00" departSpeed="max">
        <route edges="E0515 E1516 E1617"/>
    </vehicle>
    <vehicle id="124" depart="248.00" departSpeed="max">
        <route edges="E4131 E3121 E2122 E2223 E2324 E2425 E2515 E1505"/>
    </vehicle>
    <vehicle id="125" depart="250.00" departSpeed="max">
        <route edges="E0616 E1626 E2625 E2524 E2423 E2333 E3343"/>
    </vehicle>
    <vehicle id="126" depart="252.00" departSpeed="max">
        <route edges="E0212 E1222 E2221 E2120"/>
    </vehicle>
    <vehicle id="127" depart="254.00" departSpeed="max">
        <route edges="E4636 E3635 E3525 E2526 E2636 E3646"/>
    </vehicle>
    <vehicle id="128" depart="256.00" departSpeed="max">
        <route edges="E0212 E1213 E1303"/>
    </vehicle>
    <vehicle id="129" depart="258.00" departSpeed="max">
        <route edges="E0515 E1525 E2535 E3536 E3637"/>
    </vehicle>
    <vehicle id="130" depart="260.00" departSpeed="max">
        <route edges="E4434 E3435 E3545"/>
    </vehicle>
    <vehicle id="131" depart="262.00" departSpeed="max">
        <route edges="E1011 E1112 E1202"/>
    </vehicle>
    <vehicle id="132" depart="264.00" departSpeed="max">
        <route edges="E4434 E3433 E3332 E3242"/>
    </vehicle>
    <vehicle id="133" depart="266.00" departSpeed="max">
        <route edges="E3736 E3646"/>
    </vehicle>
    <vehicle id="134" depart="268.00" departSpeed="max">
        <route edges="E3736 E3635 E3534 E3433 E3332 E3231 E3121 E2111 E1101"/>
    </vehicle>
    <vehicle id="135" depart="270.00" departSpeed="max">
        <route edges="E4333 E3323 E2324 E2425 E2515 E1505"/>
    </vehicle>
    <vehicle id="136" depart="272.00" departSpeed="max">
        <route edges="E3736 E3635 E3525 E2526 E2636 E3637"/>
    </vehicle>
    <vehicle id="137" depart="274.00" departSpeed="max">
        <route edges="E0313 E1312 E1202"/>
    </vehicle>
    <vehicle id="138" depart="276.00" departSpeed="max">
        <route edges="E0212 E1222 E2223 E2324 E2425 E2526 E2627"/>
    </vehicle>
    <vehicle id="139" depart="278.00" departSpeed="max">
        <route edges="E0515 E1525 E2535 E3534 E3433 E3332 E3231 E3130"/>
    </vehicle>
    <vehicle id="140" depart="280.00" departSpeed="max">
        <route edges="E4131 E3121 E2111 E1112 E1213 E1303"/>
    </vehicle>
    <vehicle id="141" depart="282.00" departSpeed="max">
        <route edges="E3736 E3635 E3534 E3424 E2414 E1404"/>
    </vehicle>
    <vehicle id="142" depart="284.00" departSpeed="max">
        <route edges="E2021 E2122 E2223 E2324 E2425 E2526 E2636 E3637"/>
    </vehicle>
    <vehicle id="143" depart="286.00" departSpeed="max">
        <route edges="E4434 E3424 E2414 E1413 E1312 E1211 E1110"/>
    </vehicle>
    <vehicle id="144" depart="288.00" departSpeed="max">
        <route edges="E1716 E1615 E1514 E1404"/>
    </vehicle>
    <vehicle id="145" depart="290.00" departSpeed="max">
        <route edges="E0111 E1112 E1213 E1323 E2333 E3343"/>
    </vehicle>
    <vehicle id="146" depart="292.00" departSpeed="max">
        <route edges="E3736 E3635 E3534 E3424 E2414 E1404"/>
    </vehicle>
    <vehicle id="147" depart="294.00" departSpeed="max">
        <route edges="E4232 E3222 E2223 E2324 E2425 E2526 E2627"/>
    </vehicle>
    <vehicle id="148" depart="296.00" departSpeed="max">
        <route edges="E1716 E1615 E1514 E1413 E1312 E1211 E1101"/>
    </vehicle>
    <vehicle id="149" depart="298.00" departSpeed="max">
        <route edges="E0212 E1222 E2223 E2324 E2425 E2535 E3545"/>
    </vehicle>
    <vehicle id="150" depart="300.00" departSpeed="max">
        <route edges="E4535 E3525 E2526 E2627"/>
    </vehicle>
    <vehicle id="151" depart="302.00" departSpeed="max">
        <route edges="E4434 E3433 E3332 E3231 E3130"/>
    </vehicle>
    <vehicle id="152" depart="304.00" departSpeed="max">
        <route edges="E0313 E1312 E1202"/>
    </vehicle>
    <vehicle id="153" depart="306.00" departSpeed="max">
        <route edges="E0616 E1626 E2636 E3637"/>
    </vehicle>
    <vehicle id="154" depart="308.00" departSpeed="max">
        <route edges="E4333 E3334 E3435 E3545"/>
    </vehicle>
    <vehicle id="155" depart="310.00" departSpeed="max">
        <route edges="E4535 E3525 E2515 E1514 E1413 E1303"/>
    </vehicle>
    <vehicle id="156" depart="312.00" departSpeed="max">
        <route edges="E0515 E1514 E1413 E1312 E1211 E1110"/>
    </vehicle>
    <vehicle id="157" depart="314.00" departSpeed="max">
        <route edges="E4333 E3334 E3435 E3545"/>
    </vehicle>
    <vehicle id="158" depart="316.00" departSpeed="max">
        <route edges="E1716 E1615 E1514 E1413 E1312 E1211 E1121 E2131 E3141"/>
    </vehicle>
    <vehicle id="159" depart="318.00" departSpeed="max">
        <route edges="E0313 E1323 E2333 E3334 E3435 E3536 E3637"/>
    </vehicle>
    <vehicle id="160" depart="320.00" departSpeed="max">
        <route edges="E4434 E3435 E3536 E3646"/>
    </vehicle>
    <vehicle id="161" depart="322.00" departSpeed="max">
        <route edges="E4333 E3334 E3435 E3545"/>
    </vehicle>
    <vehicle id="162" depart="324.00" departSpeed="max">
        <route edges="E0111 E1112 E1213 E1323 E2333 E3343"/>
    </vehicle>
    <vehicle id="163" depart="326.00" departSpeed="max">
        <route edges="E0616 E1626 E2636 E3637"/>
    </vehicle>
    <vehicle id="164" depart="328.00" departSpeed="max">
        <route edges="E4333 E3334 E3435 E3545"/>
    </vehicle>
    <vehicle id="165" depart="330.00" departSpeed="max">
        <route edges="E4333 E3323 E2324 E2414 E1404"/>
    </vehicle>
    <vehicle id="166" depart="332.00" departSpeed="max">
        <route edges="E4333 E3323 E2313 E1312 E1211 E1110"/>
    </vehicle>
    <vehicle id="167" depart="334.00" departSpeed="max">
        <route edges="E4434 E3435 E3545"/>
    </vehicle>
    <vehicle id="168" depart="336.00" departSpeed="max">
        <route edges="E0515 E1514 E1424 E2434 E3444"/>
    </vehicle>
    <vehicle id="169" depart="338.00" departSpeed="max">
        <route edges="E2021 E2122 E2223 E2324 E2425 E2515 E1505"/>
    </vehicle>
    <vehicle id="170" depart="340.00" departSpeed="max">
        <route edges="E4333 E3323 E2324 E2414 E1404"/>
    </vehicle>
    <vehicle id="171" depart="342.00" departSpeed="max">
        <route edges="E0111 E1112 E1213 E1303"/>
    </vehicle>
    <vehicle id="172" depart="344.00" departSpeed="max">
        <route edges="E0616 E1615 E1525 E2535 E3545"/>
    </vehicle>
    <vehicle id="173" depart="346.00" departSpeed="max">
        <route edges="E4636 E3635 E3525 E2515 E1505"/>
    </vehicle>
    <vehicle id="174" depart="348.00" departSpeed="max">
        <route edges="E3736 E3626 E2616 E1617"/>
    </vehicle>
    <vehicle id="175" depart="350.00" departSpeed="max">
        <route edges="E4636 E3626 E2627"/>
    </vehicle>
    <vehicle id="176" depart="352.00" departSpeed="max">
        <route edges="E4535 E3525 E2524 E2423 E2322 E2212 E1202"/>
    </vehicle>
    <vehicle id="177" depart="354.00" departSpeed="max">
        <route edges="E4636 E3626 E2625 E2524 E2423 E2313 E1303"/>
    </vehicle>
    <vehicle id="178" depart="356.00" departSpeed="max">
        <route edges="E4636 E3635 E3534 E3424 E2414 E1404"/>
    </vehicle>
    <vehicle id="179" depart="358.00" departSpeed="max">
        <route edges="E0212 E1213 E1314 E1415 E1516 E1617"/>
    </vehicle>
    <vehicle id="180" depart="360.00" departSpeed="max">
        <route edges="E4232 E3233 E3334 E3435 E3525 E2515 E1505"/>
    </vehicle>
    <vehicle id="181" depart="362.00" departSpeed="max">
        <route edges="E3031 E3121 E2122 E2223 E2324 E2425 E2526 E2627"/>
    </vehicle>
    <vehicle id="182" depart="364.00" departSpeed="max">
        <route edges="E1011 E1121 E2131 E3130"/>
    </vehicle>
    <vehicle id="183" depart="366.00" departSpeed="max">
        <route edges="E0515 E1514 E1413 E1312 E1222 E2232 E3242"/>
    </vehicle>
    <vehicle id="184" depart="368.00" departSpeed="max">
        <route edges="E0111 E1121 E2131 E3132 E3233 E3334 E3435 E3536 E3637"/>
    </vehicle>
    <vehicle id="185" depart="370.00" departSpeed="max">
        <route edges="E2726 E2625 E2524 E2423 E2322 E2232 E3242"/>
    </vehicle>
    <vehicle id="186" depart="372.00" departSpeed="max">
        <route edges="E4232 E3231 E3121 E2122 E2232 E3242"/>
    </vehicle>
    <vehicle id="187" depart="374.00" departSpeed="max">
        <route edges="E1011 E1112 E1222 E2221 E2111 E1110"/>
    </vehicle>
    <vehicle id="188" depart="376.00" departSpeed="max">
        <route edges="E3736 E3635 E3525 E2515 E1505"/>
    </vehicle>
    <vehicle id="189" depart="378.00" departSpeed="max">
        <route edges="E0616 E1615 E1525 E2535 E3545"/>
    </vehicle>
    <vehicle id="190" depart="380.00" departSpeed="max">
        <route edges="E4131 E3121 E2122 E2223 E2324 E2425 E2515 E1505"/>
    </vehicle>
    <vehicle id="191" depart="382.00" departSpeed="max">
        <route edges="E0616 E1617"/>
    </vehicle>
    <vehicle id="192" depart="384.00" departSpeed="max">
        <route edges="E1716 E1615 E1505"/>
    </vehicle>
    <vehicle id="193" depart="386.00" departSpeed="max">
        <route edges="E0313 E1314 E1415 E1516 E1617"/>
    </vehicle>
    <vehicle id="194" depart="388.00" departSpeed="max">
        <route edges="E4535 E3534 E3433 E3332 E3242"/>
    </vehicle>
    <vehicle id="195" depart="390.00" departSpeed="max">
        <route edges="E4535 E3534 E3433 E3332 E3231 E3141"/>
    </vehicle>
    <vehicle id="196" depart="392.00" departSpeed="max">
        <route edges="E0616 E1626 E2627"/>
    </vehicle>
    <vehicle id="197" depart="394.00" departSpeed="max">
        <route edges="E0111 E1112 E1213 E1314 E1415 E1505"/>
    </vehicle>
    <vehicle id="198" depart="396.00" departSpeed="max">
        <route edges="E1716 E1615 E1514 E1413 E1323 E2333 E3332 E3231 E3130"/>
    </vehicle>
    <vehicle id="199" depart="398.00" departSpeed="max">
        <route edges="E3736 E3635 E3534 E3433 E3332 E3231 E3121 E2120"/>
    </vehicle>
    <vehicle id="200" depart="400.00" departSpeed="max">
        <route edges="E1716 E1615 E1514 E1413 E1303"/>
    </vehicle>
    <vehicle id="201" depart="402.00" departSpeed="max">
        <route edges="E2021 E2122 E2223 E2324 E2425 E2526 E2636 E3637"/>
    </vehicle>
    <vehicle id="202" depart="404.00" departSpeed="max">
        <route edges="E4333 E3323 E2313 E1303"/>
    </vehicle>
    <vehicle id="203" depart="406.00" departSpeed="max">
        <route edges="E0212 E1222 E2223 E2324 E2425 E2526 E2627"/>
    </vehicle>
    <vehicle id="204" depart="408.00" departSpeed="max">
        <route edges="E3736 E3626 E2616 E1606"/>
    </vehicle>
    <vehicle id="205" depart="410.00" departSpeed="max">
        <route edges="E4333 E3332 E3222 E2223 E2333 E3343"/>
    </vehicle>
    <vehicle id="206" depart="412.00" departSpeed="max">
        <route edges="E4131 E3121 E2122 E2223 E2324 E2414 E1404"/>
    </vehicle>
    <vehicle id="207" depart="414.00" departSpeed="max">
        <route edges="E0414 E1413 E1312 E1211 E1101"/>
    </vehicle>
    <vehicle id="208" depart="416.00" departSpeed="max">
        <route edges="E0515 E1525 E2524 E2423 E2322 E2221 E2120"/>
    </vehicle>
    <vehicle id="209" depart="418.00" departSpeed="max">
        <route edges="E4434 E3424 E2414 E1413 E1312 E1211 E1110"/>
    </vehicle>
    <vehicle id="210" depart="420.00" departSpeed="max">
        <route edges="E1716 E1615 E1514 E1413 E1312 E1211 E1121 E2131 E3141"/>
    </vehicle>
    <vehicle id="211" depart="422.00" departSpeed="max">
        <route edges="E0414 E1424 E2423 E2322 E2232 E3242"/>
    </vehicle>
    <vehicle id="212" depart="424.00" departSpeed="max">
        <route edges="E2021 E2122 E2223 E2324 E2414 E1404"/>
    </vehicle>
    <vehicle id="213" depart="426.00" departSpeed="max">
        <route edges="E3736 E3635 E3534 E3433 E3332 E3231 E3121 E2111 E1101"/>
    </vehicle>
    <vehicle id="214" depart="428.00" departSpeed="max">
        <route edges="E4232 E3233 E3343"/>
    </vehicle>
    <vehicle id="215" depart="430.00" departSpeed="max">
        <route edges="E0212 E1213 E1314 E1415 E1516 E1617"/>
    </vehicle>
    <vehicle id="216" depart="432.00" departSpeed="max">
        <route edges="E0414 E1415 E1516 E1626 E2636 E3646"/>
    </vehicle>
    <vehicle id="217" depart="434.00" departSpeed="max">
        <route edges="E2726 E2625 E2524 E2423 E2322 E2221 E2111 E1101"/>
    </vehicle>
    <vehicle id="218" depart="436.00" departSpeed="max">
        <route edges="E0515 E1525 E2535 E3545"/>
    </vehicle>
    <vehicle id="219" depart="438.00" departSpeed="max">
        <route edges="E2021 E2122 E2223 E2324 E2434 E3444"/>
    </vehicle>
    <vehicle id="220" depart="440.00" departSpeed="max">
        <route edges="E4131 E3132 E3233 E3334 E3435 E3536 E3646"/>
    </vehicle>
    <vehicle id="221" depart="442.00" departSpeed="max">
        <route edges="E3031 E3132 E3233 E3334 E3435 E3536 E3646"/>
    </vehicle>