<configuration>
    <input>
        <net-file value="grid18x3.net.xml"/>
        <route-files value="18x3_heavy_3600.rou.xml"/>
    </input>
    <processing>
        <lateral-resolution value="1" />
        <waiting-time-memory value="4000" />
    </processing>
</configuration>