<?xml version="1.0" encoding="UTF-8"?>

<!-- generated on 2025-01-06 23:05:22 by Eclipse SUMO netedit Version 1.20.0
<configuration xmlns:xsi="http://www.w3.org/2001/XMLSchema-instance" xsi:noNamespaceSchemaLocation="http://sumo.dlr.de/xsd/neteditConfiguration.xsd">

    <input>
        <sumo-net-file value="3x6.net.xml"/>
    </input>

    <output>
        <output-file value="3x6.net.xml"/>
    </output>

    <processing>
        <geometry.min-radius.fix.railways value="false"/>
        <geometry.max-grade.fix value="false"/>
        <offset.disable-normalization value="true"/>
        <lefthand value="0"/>
    </processing>

    <junctions>
        <no-turnarounds value="true"/>
        <junctions.corner-detail value="5"/>
        <junctions.limit-turn-speed value="5.50"/>
        <rectangular-lane-cut value="0"/>
    </junctions>

    <pedestrian>
        <walkingareas value="0"/>
    </pedestrian>

</configuration>
-->

<net version="1.20" junctionCornerDetail="5" limitTurnSpeed="5.50" xmlns:xsi="http://www.w3.org/2001/XMLSchema-instance" xsi:noNamespaceSchemaLocation="http://sumo.dlr.de/xsd/net_file.xsd">

    <location netOffset="0.00,0.00" convBoundary="-600.00,-600.00,1800.00,600.00" origBoundary="-10000000000.00,-10000000000.00,10000000000.00,10000000000.00" projParameter="!"/>

    <edge id=":J11_0" function="internal">
        <lane id=":J11_0_0" index="0" speed="6.51" length="9.03" shape="-308.00,313.60 -308.35,311.15 -309.40,309.40 -311.15,308.35 -313.60,308.00"/>
    </edge>
    <edge id=":J11_1" function="internal">
        <lane id=":J11_1_0" index="0" speed="13.89" length="27.20" shape="-308.00,313.60 -308.00,286.40"/>
        <lane id=":J11_1_1" index="1" speed="13.89" length="27.20" shape="-304.80,313.60 -304.80,286.40"/>
    </edge>
    <edge id=":J11_3" function="internal">
        <lane id=":J11_3_0" index="0" speed="10.36" length="12.07" shape="-301.60,313.60 -300.65,306.95 -297.90,302.36"/>
    </edge>
    <edge id=":J11_16" function="internal">
        <lane id=":J11_16_0" index="0" speed="10.36" length="12.44" shape="-297.90,302.36 -297.80,302.20 -293.05,299.35 -286.40,298.40"/>
    </edge>
    <edge id=":J11_4" function="internal">
        <lane id=":J11_4_0" index="0" speed="6.51" length="9.03" shape="-286.40,308.00 -288.85,308.35 -290.60,309.40 -291.65,311.15 -292.00,313.60"/>
    </edge>
    <edge id=":J11_5" function="internal">
        <lane id=":J11_5_0" index="0" speed="13.89" length="27.20" shape="-286.40,308.00 -313.60,308.00"/>
        <lane id=":J11_5_1" index="1" speed="13.89" length="27.20" shape="-286.40,304.80 -313.60,304.80"/>
    </edge>
    <edge id=":J11_7" function="internal">
        <lane id=":J11_7_0" index="0" speed="10.36" length="12.07" shape="-286.40,301.60 -293.05,300.65 -297.64,297.90"/>
    </edge>
    <edge id=":J11_17" function="internal">
        <lane id=":J11_17_0" index="0" speed="10.36" length="12.44" shape="-297.64,297.90 -297.80,297.80 -300.65,293.05 -301.60,286.40"/>
    </edge>
    <edge id=":J11_8" function="internal">
        <lane id=":J11_8_0" index="0" speed="6.51" length="9.03" shape="-292.00,286.40 -291.65,288.85 -290.60,290.60 -288.85,291.65 -286.40,292.00"/>
    </edge>
    <edge id=":J11_9" function="internal">
        <lane id=":J11_9_0" index="0" speed="13.89" length="27.20" shape="-292.00,286.40 -292.00,313.60"/>
        <lane id=":J11_9_1" index="1" speed="13.89" length="27.20" shape="-295.20,286.40 -295.20,313.60"/>
    </edge>
    <edge id=":J11_11" function="internal">
        <lane id=":J11_11_0" index="0" speed="10.36" length="12.07" shape="-298.40,286.40 -299.35,293.05 -302.10,297.64"/>
    </edge>
    <edge id=":J11_18" function="internal">
        <lane id=":J11_18_0" index="0" speed="10.36" length="12.44" shape="-302.10,297.64 -302.20,297.80 -306.95,300.65 -313.60,301.60"/>
    </edge>
    <edge id=":J11_12" function="internal">
        <lane id=":J11_12_0" index="0" speed="6.51" length="9.03" shape="-313.60,292.00 -311.15,291.65 -309.40,290.60 -308.35,288.85 -308.00,286.40"/>
    </edge>
    <edge id=":J11_13" function="internal">
        <lane id=":J11_13_0" index="0" speed="13.89" length="27.20" shape="-313.60,292.00 -286.40,292.00"/>
        <lane id=":J11_13_1" index="1" speed="13.89" length="27.20" shape="-313.60,295.20 -286.40,295.20"/>
    </edge>
    <edge id=":J11_15" function="internal">
        <lane id=":J11_15_0" index="0" speed="10.36" length="12.07" shape="-313.60,298.40 -306.95,299.35 -302.36,302.10"/>
    </edge>
    <edge id=":J11_19" function="internal">
        <lane id=":J11_19_0" index="0" speed="10.36" length="12.44" shape="-302.36,302.10 -302.20,302.20 -299.35,306.95 -298.40,313.60"/>
    </edge>
    <edge id=":J12_0" function="internal">
        <lane id=":J12_0_0" index="0" speed="6.51" length="9.03" shape="-8.00,313.60 -8.35,311.15 -9.40,309.40 -11.15,308.35 -13.60,308.00"/>
    </edge>
    <edge id=":J12_1" function="internal">
        <lane id=":J12_1_0" index="0" speed="13.89" length="27.20" shape="-8.00,313.60 -8.00,286.40"/>
        <lane id=":J12_1_1" index="1" speed="13.89" length="27.20" shape="-4.80,313.60 -4.80,286.40"/>
    </edge>
    <edge id=":J12_3" function="internal">
        <lane id=":J12_3_0" index="0" speed="10.36" length="12.07" shape="-1.60,313.60 -0.65,306.95 2.10,302.36"/>
    </edge>
    <edge id=":J12_16" function="internal">
        <lane id=":J12_16_0" index="0" speed="10.36" length="12.44" shape="2.10,302.36 2.20,302.20 6.95,299.35 13.60,298.40"/>
    </edge>
    <edge id=":J12_4" function="internal">
        <lane id=":J12_4_0" index="0" speed="6.51" length="9.03" shape="13.60,308.00 11.15,308.35 9.40,309.40 8.35,311.15 8.00,313.60"/>
    </edge>
    <edge id=":J12_5" function="internal">
        <lane id=":J12_5_0" index="0" speed="13.89" length="27.20" shape="13.60,308.00 -13.60,308.00"/>
        <lane id=":J12_5_1" index="1" speed="13.89" length="27.20" shape="13.60,304.80 -13.60,304.80"/>
    </edge>
    <edge id=":J12_7" function="internal">
        <lane id=":J12_7_0" index="0" speed="10.36" length="12.07" shape="13.60,301.60 6.95,300.65 2.36,297.90"/>
    </edge>
    <edge id=":J12_17" function="internal">
        <lane id=":J12_17_0" index="0" speed="10.36" length="12.44" shape="2.36,297.90 2.20,297.80 -0.65,293.05 -1.60,286.40"/>
    </edge>
    <edge id=":J12_8" function="internal">
        <lane id=":J12_8_0" index="0" speed="6.51" length="9.03" shape="8.00,286.40 8.35,288.85 9.40,290.60 11.15,291.65 13.60,292.00"/>
    </edge>
    <edge id=":J12_9" function="internal">
        <lane id=":J12_9_0" index="0" speed="13.89" length="27.20" shape="8.00,286.40 8.00,313.60"/>
        <lane id=":J12_9_1" index="1" speed="13.89" length="27.20" shape="4.80,286.40 4.80,313.60"/>
    </edge>
    <edge id=":J12_11" function="internal">
        <lane id=":J12_11_0" index="0" speed="10.36" length="12.07" shape="1.60,286.40 0.65,293.05 -2.10,297.64"/>
    </edge>
    <edge id=":J12_18" function="internal">
        <lane id=":J12_18_0" index="0" speed="10.36" length="12.44" shape="-2.10,297.64 -2.20,297.80 -6.95,300.65 -13.60,301.60"/>
    </edge>
    <edge id=":J12_12" function="internal">
        <lane id=":J12_12_0" index="0" speed="6.51" length="9.03" shape="-13.60,292.00 -11.15,291.65 -9.40,290.60 -8.35,288.85 -8.00,286.40"/>
    </edge>
    <edge id=":J12_13" function="internal">
        <lane id=":J12_13_0" index="0" speed="13.89" length="27.20" shape="-13.60,292.00 13.60,292.00"/>
        <lane id=":J12_13_1" index="1" speed="13.89" length="27.20" shape="-13.60,295.20 13.60,295.20"/>
    </edge>
    <edge id=":J12_15" function="internal">
        <lane id=":J12_15_0" index="0" speed="10.36" length="12.07" shape="-13.60,298.40 -6.95,299.35 -2.36,302.10"/>
    </edge>
    <edge id=":J12_19" function="internal">
        <lane id=":J12_19_0" index="0" speed="10.36" length="12.44" shape="-2.36,302.10 -2.20,302.20 0.65,306.95 1.60,313.60"/>
    </edge>
    <edge id=":J13_0" function="internal">
        <lane id=":J13_0_0" index="0" speed="6.51" length="9.03" shape="292.00,313.60 291.65,311.15 290.60,309.40 288.85,308.35 286.40,308.00"/>
    </edge>
    <edge id=":J13_1" function="internal">
        <lane id=":J13_1_0" index="0" speed="13.89" length="27.20" shape="292.00,313.60 292.00,286.40"/>
        <lane id=":J13_1_1" index="1" speed="13.89" length="27.20" shape="295.20,313.60 295.20,286.40"/>
    </edge>
    <edge id=":J13_3" function="internal">
        <lane id=":J13_3_0" index="0" speed="10.36" length="12.07" shape="298.40,313.60 299.35,306.95 302.10,302.36"/>
    </edge>
    <edge id=":J13_16" function="internal">
        <lane id=":J13_16_0" index="0" speed="10.36" length="12.44" shape="302.10,302.36 302.20,302.20 306.95,299.35 313.60,298.40"/>
    </edge>
    <edge id=":J13_4" function="internal">
        <lane id=":J13_4_0" index="0" speed="6.51" length="9.03" shape="313.60,308.00 311.15,308.35 309.40,309.40 308.35,311.15 308.00,313.60"/>
    </edge>
    <edge id=":J13_5" function="internal">
        <lane id=":J13_5_0" index="0" speed="13.89" length="27.20" shape="313.60,308.00 286.40,308.00"/>
        <lane id=":J13_5_1" index="1" speed="13.89" length="27.20" shape="313.60,304.80 286.40,304.80"/>
    </edge>
    <edge id=":J13_7" function="internal">
        <lane id=":J13_7_0" index="0" speed="10.36" length="12.07" shape="313.60,301.60 306.95,300.65 302.36,297.90"/>
    </edge>
    <edge id=":J13_17" function="internal">
        <lane id=":J13_17_0" index="0" speed="10.36" length="12.44" shape="302.36,297.90 302.20,297.80 299.35,293.05 298.40,286.40"/>
    </edge>
    <edge id=":J13_8" function="internal">
        <lane id=":J13_8_0" index="0" speed="6.51" length="9.03" shape="308.00,286.40 308.35,288.85 309.40,290.60 311.15,291.65 313.60,292.00"/>
    </edge>
    <edge id=":J13_9" function="internal">
        <lane id=":J13_9_0" index="0" speed="13.89" length="27.20" shape="308.00,286.40 308.00,313.60"/>
        <lane id=":J13_9_1" index="1" speed="13.89" length="27.20" shape="304.80,286.40 304.80,313.60"/>
    </edge>
    <edge id=":J13_11" function="internal">
        <lane id=":J13_11_0" index="0" speed="10.36" length="12.07" shape="301.60,286.40 300.65,293.05 297.90,297.64"/>
    </edge>
    <edge id=":J13_18" function="internal">
        <lane id=":J13_18_0" index="0" speed="10.36" length="12.44" shape="297.90,297.64 297.80,297.80 293.05,300.65 286.40,301.60"/>
    </edge>
    <edge id=":J13_12" function="internal">
        <lane id=":J13_12_0" index="0" speed="6.51" length="9.03" shape="286.40,292.00 288.85,291.65 290.60,290.60 291.65,288.85 292.00,286.40"/>
    </edge>
    <edge id=":J13_13" function="internal">
        <lane id=":J13_13_0" index="0" speed="13.89" length="27.20" shape="286.40,292.00 313.60,292.00"/>
        <lane id=":J13_13_1" index="1" speed="13.89" length="27.20" shape="286.40,295.20 313.60,295.20"/>
    </edge>
    <edge id=":J13_15" function="internal">
        <lane id=":J13_15_0" index="0" speed="10.36" length="12.07" shape="286.40,298.40 293.05,299.35 297.64,302.10"/>
    </edge>
    <edge id=":J13_19" function="internal">
        <lane id=":J13_19_0" index="0" speed="10.36" length="12.44" shape="297.64,302.10 297.80,302.20 300.65,306.95 301.60,313.60"/>
    </edge>
    <edge id=":J14_0" function="internal">
        <lane id=":J14_0_0" index="0" speed="6.51" length="9.03" shape="892.00,313.60 891.65,311.15 890.60,309.40 888.85,308.35 886.40,308.00"/>
    </edge>
    <edge id=":J14_1" function="internal">
        <lane id=":J14_1_0" index="0" speed="13.89" length="27.20" shape="892.00,313.60 892.00,286.40"/>
        <lane id=":J14_1_1" index="1" speed="13.89" length="27.20" shape="895.20,313.60 895.20,286.40"/>
    </edge>
    <edge id=":J14_3" function="internal">
        <lane id=":J14_3_0" index="0" speed="10.36" length="12.07" shape="898.40,313.60 899.35,306.95 902.10,302.36"/>
    </edge>
    <edge id=":J14_16" function="internal">
        <lane id=":J14_16_0" index="0" speed="10.36" length="12.44" shape="902.10,302.36 902.20,302.20 906.95,299.35 913.60,298.40"/>
    </edge>
    <edge id=":J14_4" function="internal">
        <lane id=":J14_4_0" index="0" speed="6.51" length="9.03" shape="913.60,308.00 911.15,308.35 909.40,309.40 908.35,311.15 908.00,313.60"/>
    </edge>
    <edge id=":J14_5" function="internal">
        <lane id=":J14_5_0" index="0" speed="13.89" length="27.20" shape="913.60,308.00 886.40,308.00"/>
        <lane id=":J14_5_1" index="1" speed="13.89" length="27.20" shape="913.60,304.80 886.40,304.80"/>
    </edge>
    <edge id=":J14_7" function="internal">
        <lane id=":J14_7_0" index="0" speed="10.36" length="12.07" shape="913.60,301.60 906.95,300.65 902.36,297.90"/>
    </edge>
    <edge id=":J14_17" function="internal">
        <lane id=":J14_17_0" index="0" speed="10.36" length="12.44" shape="902.36,297.90 902.20,297.80 899.35,293.05 898.40,286.40"/>
    </edge>
    <edge id=":J14_8" function="internal">
        <lane id=":J14_8_0" index="0" speed="6.51" length="9.03" shape="908.00,286.40 908.35,288.85 909.40,290.60 911.15,291.65 913.60,292.00"/>
    </edge>
    <edge id=":J14_9" function="internal">
        <lane id=":J14_9_0" index="0" speed="13.89" length="27.20" shape="908.00,286.40 908.00,313.60"/>
        <lane id=":J14_9_1" index="1" speed="13.89" length="27.20" shape="904.80,286.40 904.80,313.60"/>
    </edge>
    <edge id=":J14_11" function="internal">
        <lane id=":J14_11_0" index="0" speed="10.36" length="12.07" shape="901.60,286.40 900.65,293.05 897.90,297.64"/>
    </edge>
    <edge id=":J14_18" function="internal">
        <lane id=":J14_18_0" index="0" speed="10.36" length="12.44" shape="897.90,297.64 897.80,297.80 893.05,300.65 886.40,301.60"/>
    </edge>
    <edge id=":J14_12" function="internal">
        <lane id=":J14_12_0" index="0" speed="6.51" length="9.03" shape="886.40,292.00 888.85,291.65 890.60,290.60 891.65,288.85 892.00,286.40"/>
    </edge>
    <edge id=":J14_13" function="internal">
        <lane id=":J14_13_0" index="0" speed="13.89" length="27.20" shape="886.40,292.00 913.60,292.00"/>
        <lane id=":J14_13_1" index="1" speed="13.89" length="27.20" shape="886.40,295.20 913.60,295.20"/>
    </edge>
    <edge id=":J14_15" function="internal">
        <lane id=":J14_15_0" index="0" speed="10.36" length="12.07" shape="886.40,298.40 893.05,299.35 897.64,302.10"/>
    </edge>
    <edge id=":J14_19" function="internal">
        <lane id=":J14_19_0" index="0" speed="10.36" length="12.44" shape="897.64,302.10 897.80,302.20 900.65,306.95 901.60,313.60"/>
    </edge>
    <edge id=":J15_0" function="internal">
        <lane id=":J15_0_0" index="0" speed="6.51" length="9.03" shape="1192.00,313.60 1191.65,311.15 1190.60,309.40 1188.85,308.35 1186.40,308.00"/>
    </edge>
    <edge id=":J15_1" function="internal">
        <lane id=":J15_1_0" index="0" speed="13.89" length="27.20" shape="1192.00,313.60 1192.00,286.40"/>
        <lane id=":J15_1_1" index="1" speed="13.89" length="27.20" shape="1195.20,313.60 1195.20,286.40"/>
    </edge>
    <edge id=":J15_3" function="internal">
        <lane id=":J15_3_0" index="0" speed="10.36" length="12.07" shape="1198.40,313.60 1199.35,306.95 1202.10,302.36"/>
    </edge>
    <edge id=":J15_16" function="internal">
        <lane id=":J15_16_0" index="0" speed="10.36" length="12.44" shape="1202.10,302.36 1202.20,302.20 1206.95,299.35 1213.60,298.40"/>
    </edge>
    <edge id=":J15_4" function="internal">
        <lane id=":J15_4_0" index="0" speed="6.51" length="9.03" shape="1213.60,308.00 1211.15,308.35 1209.40,309.40 1208.35,311.15 1208.00,313.60"/>
    </edge>
    <edge id=":J15_5" function="internal">
        <lane id=":J15_5_0" index="0" speed="13.89" length="27.20" shape="1213.60,308.00 1186.40,308.00"/>
        <lane id=":J15_5_1" index="1" speed="13.89" length="27.20" shape="1213.60,304.80 1186.40,304.80"/>
    </edge>
    <edge id=":J15_7" function="internal">
        <lane id=":J15_7_0" index="0" speed="10.36" length="12.07" shape="1213.60,301.60 1206.95,300.65 1202.36,297.90"/>
    </edge>
    <edge id=":J15_17" function="internal">
        <lane id=":J15_17_0" index="0" speed="10.36" length="12.44" shape="1202.36,297.90 1202.20,297.80 1199.35,293.05 1198.40,286.40"/>
    </edge>
    <edge id=":J15_8" function="internal">
        <lane id=":J15_8_0" index="0" speed="6.51" length="9.03" shape="1208.00,286.40 1208.35,288.85 1209.40,290.60 1211.15,291.65 1213.60,292.00"/>
    </edge>
    <edge id=":J15_9" function="internal">
        <lane id=":J15_9_0" index="0" speed="13.89" length="27.20" shape="1208.00,286.40 1208.00,313.60"/>
        <lane id=":J15_9_1" index="1" speed="13.89" length="27.20" shape="1204.80,286.40 1204.80,313.60"/>
    </edge>
    <edge id=":J15_11" function="internal">
        <lane id=":J15_11_0" index="0" speed="10.36" length="12.07" shape="1201.60,286.40 1200.65,293.05 1197.90,297.64"/>
    </edge>
    <edge id=":J15_18" function="internal">
        <lane id=":J15_18_0" index="0" speed="10.36" length="12.44" shape="1197.90,297.64 1197.80,297.80 1193.05,300.65 1186.40,301.60"/>
    </edge>
    <edge id=":J15_12" function="internal">
        <lane id=":J15_12_0" index="0" speed="6.51" length="9.03" shape="1186.40,292.00 1188.85,291.65 1190.60,290.60 1191.65,288.85 1192.00,286.40"/>
    </edge>
    <edge id=":J15_13" function="internal">
        <lane id=":J15_13_0" index="0" speed="13.89" length="27.20" shape="1186.40,292.00 1213.60,292.00"/>
        <lane id=":J15_13_1" index="1" speed="13.89" length="27.20" shape="1186.40,295.20 1213.60,295.20"/>
    </edge>
    <edge id=":J15_15" function="internal">
        <lane id=":J15_15_0" index="0" speed="10.36" length="12.07" shape="1186.40,298.40 1193.05,299.35 1197.64,302.10"/>
    </edge>
    <edge id=":J15_19" function="internal">
        <lane id=":J15_19_0" index="0" speed="10.36" length="12.44" shape="1197.64,302.10 1197.80,302.20 1200.65,306.95 1201.60,313.60"/>
    </edge>
    <edge id=":J16_0" function="internal">
        <lane id=":J16_0_0" index="0" speed="6.51" length="9.03" shape="1492.00,313.60 1491.65,311.15 1490.60,309.40 1488.85,308.35 1486.40,308.00"/>
    </edge>
    <edge id=":J16_1" function="internal">
        <lane id=":J16_1_0" index="0" speed="13.89" length="27.20" shape="1492.00,313.60 1492.00,286.40"/>
        <lane id=":J16_1_1" index="1" speed="13.89" length="27.20" shape="1495.20,313.60 1495.20,286.40"/>
    </edge>
    <edge id=":J16_3" function="internal">
        <lane id=":J16_3_0" index="0" speed="10.36" length="12.07" shape="1498.40,313.60 1499.35,306.95 1502.10,302.36"/>
    </edge>
    <edge id=":J16_16" function="internal">
        <lane id=":J16_16_0" index="0" speed="10.36" length="12.44" shape="1502.10,302.36 1502.20,302.20 1506.95,299.35 1513.60,298.40"/>
    </edge>
    <edge id=":J16_4" function="internal">
        <lane id=":J16_4_0" index="0" speed="6.51" length="9.03" shape="1513.60,308.00 1511.15,308.35 1509.40,309.40 1508.35,311.15 1508.00,313.60"/>
    </edge>
    <edge id=":J16_5" function="internal">
        <lane id=":J16_5_0" index="0" speed="13.89" length="27.20" shape="1513.60,308.00 1486.40,308.00"/>
        <lane id=":J16_5_1" index="1" speed="13.89" length="27.20" shape="1513.60,304.80 1486.40,304.80"/>
    </edge>
    <edge id=":J16_7" function="internal">
        <lane id=":J16_7_0" index="0" speed="10.36" length="12.07" shape="1513.60,301.60 1506.95,300.65 1502.36,297.90"/>
    </edge>
    <edge id=":J16_17" function="internal">
        <lane id=":J16_17_0" index="0" speed="10.36" length="12.44" shape="1502.36,297.90 1502.20,297.80 1499.35,293.05 1498.40,286.40"/>
    </edge>
    <edge id=":J16_8" function="internal">
        <lane id=":J16_8_0" index="0" speed="6.51" length="9.03" shape="1508.00,286.40 1508.35,288.85 1509.40,290.60 1511.15,291.65 1513.60,292.00"/>
    </edge>
    <edge id=":J16_9" function="internal">
        <lane id=":J16_9_0" index="0" speed="13.89" length="27.20" shape="1508.00,286.40 1508.00,313.60"/>
        <lane id=":J16_9_1" index="1" speed="13.89" length="27.20" shape="1504.80,286.40 1504.80,313.60"/>
    </edge>
    <edge id=":J16_11" function="internal">
        <lane id=":J16_11_0" index="0" speed="10.36" length="12.07" shape="1501.60,286.40 1500.65,293.05 1497.90,297.64"/>
    </edge>
    <edge id=":J16_18" function="internal">
        <lane id=":J16_18_0" index="0" speed="10.36" length="12.44" shape="1497.90,297.64 1497.80,297.80 1493.05,300.65 1486.40,301.60"/>
    </edge>
    <edge id=":J16_12" function="internal">
        <lane id=":J16_12_0" index="0" speed="6.51" length="9.03" shape="1486.40,292.00 1488.85,291.65 1490.60,290.60 1491.65,288.85 1492.00,286.40"/>
    </edge>
    <edge id=":J16_13" function="internal">
        <lane id=":J16_13_0" index="0" speed="13.89" length="27.20" shape="1486.40,292.00 1513.60,292.00"/>
        <lane id=":J16_13_1" index="1" speed="13.89" length="27.20" shape="1486.40,295.20 1513.60,295.20"/>
    </edge>
    <edge id=":J16_15" function="internal">
        <lane id=":J16_15_0" index="0" speed="10.36" length="12.07" shape="1486.40,298.40 1493.05,299.35 1497.64,302.10"/>
    </edge>
    <edge id=":J16_19" function="internal">
        <lane id=":J16_19_0" index="0" speed="10.36" length="12.44" shape="1497.64,302.10 1497.80,302.20 1500.65,306.95 1501.60,313.60"/>
    </edge>
    <edge id=":J21_0" function="internal">
        <lane id=":J21_0_0" index="0" speed="6.51" length="9.03" shape="-308.00,13.60 -308.35,11.15 -309.40,9.40 -311.15,8.35 -313.60,8.00"/>
    </edge>
    <edge id=":J21_1" function="internal">
        <lane id=":J21_1_0" index="0" speed="13.89" length="27.20" shape="-308.00,13.60 -308.00,-13.60"/>
        <lane id=":J21_1_1" index="1" speed="13.89" length="27.20" shape="-304.80,13.60 -304.80,-13.60"/>
    </edge>
    <edge id=":J21_3" function="internal">
        <lane id=":J21_3_0" index="0" speed="10.36" length="12.07" shape="-301.60,13.60 -300.65,6.95 -297.90,2.36"/>
    </edge>
    <edge id=":J21_16" function="internal">
        <lane id=":J21_16_0" index="0" speed="10.36" length="12.44" shape="-297.90,2.36 -297.80,2.20 -293.05,-0.65 -286.40,-1.60"/>
    </edge>
    <edge id=":J21_4" function="internal">
        <lane id=":J21_4_0" index="0" speed="6.51" length="9.03" shape="-286.40,8.00 -288.85,8.35 -290.60,9.40 -291.65,11.15 -292.00,13.60"/>
    </edge>
    <edge id=":J21_5" function="internal">
        <lane id=":J21_5_0" index="0" speed="13.89" length="27.20" shape="-286.40,8.00 -313.60,8.00"/>
        <lane id=":J21_5_1" index="1" speed="13.89" length="27.20" shape="-286.40,4.80 -313.60,4.80"/>
    </edge>
    <edge id=":J21_7" function="internal">
        <lane id=":J21_7_0" index="0" speed="10.36" length="12.07" shape="-286.40,1.60 -293.05,0.65 -297.64,-2.10"/>
    </edge>
    <edge id=":J21_17" function="internal">
        <lane id=":J21_17_0" index="0" speed="10.36" length="12.44" shape="-297.64,-2.10 -297.80,-2.20 -300.65,-6.95 -301.60,-13.60"/>
    </edge>
    <edge id=":J21_8" function="internal">
        <lane id=":J21_8_0" index="0" speed="6.51" length="9.03" shape="-292.00,-13.60 -291.65,-11.15 -290.60,-9.40 -288.85,-8.35 -286.40,-8.00"/>
    </edge>
    <edge id=":J21_9" function="internal">
        <lane id=":J21_9_0" index="0" speed="13.89" length="27.20" shape="-292.00,-13.60 -292.00,13.60"/>
        <lane id=":J21_9_1" index="1" speed="13.89" length="27.20" shape="-295.20,-13.60 -295.20,13.60"/>
    </edge>
    <edge id=":J21_11" function="internal">
        <lane id=":J21_11_0" index="0" speed="10.36" length="12.07" shape="-298.40,-13.60 -299.35,-6.95 -302.10,-2.36"/>
    </edge>
    <edge id=":J21_18" function="internal">
        <lane id=":J21_18_0" index="0" speed="10.36" length="12.44" shape="-302.10,-2.36 -302.20,-2.20 -306.95,0.65 -313.60,1.60"/>
    </edge>
    <edge id=":J21_12" function="internal">
        <lane id=":J21_12_0" index="0" speed="6.51" length="9.03" shape="-313.60,-8.00 -311.15,-8.35 -309.40,-9.40 -308.35,-11.15 -308.00,-13.60"/>
    </edge>
    <edge id=":J21_13" function="internal">
        <lane id=":J21_13_0" index="0" speed="13.89" length="27.20" shape="-313.60,-8.00 -286.40,-8.00"/>
        <lane id=":J21_13_1" index="1" speed="13.89" length="27.20" shape="-313.60,-4.80 -286.40,-4.80"/>
    </edge>
    <edge id=":J21_15" function="internal">
        <lane id=":J21_15_0" index="0" speed="10.36" length="12.07" shape="-313.60,-1.60 -306.95,-0.65 -302.36,2.10"/>
    </edge>
    <edge id=":J21_19" function="internal">
        <lane id=":J21_19_0" index="0" speed="10.36" length="12.44" shape="-302.36,2.10 -302.20,2.20 -299.35,6.95 -298.40,13.60"/>
    </edge>
    <edge id=":J22_0" function="internal">
        <lane id=":J22_0_0" index="0" speed="6.51" length="9.03" shape="-8.00,13.60 -8.35,11.15 -9.40,9.40 -11.15,8.35 -13.60,8.00"/>
    </edge>
    <edge id=":J22_1" function="internal">
        <lane id=":J22_1_0" index="0" speed="13.89" length="27.20" shape="-8.00,13.60 -8.00,-13.60"/>
        <lane id=":J22_1_1" index="1" speed="13.89" length="27.20" shape="-4.80,13.60 -4.80,-13.60"/>
    </edge>
    <edge id=":J22_3" function="internal">
        <lane id=":J22_3_0" index="0" speed="10.36" length="12.07" shape="-1.60,13.60 -0.65,6.95 2.10,2.36"/>
    </edge>
    <edge id=":J22_16" function="internal">
        <lane id=":J22_16_0" index="0" speed="10.36" length="12.44" shape="2.10,2.36 2.20,2.20 6.95,-0.65 13.60,-1.60"/>
    </edge>
    <edge id=":J22_4" function="internal">
        <lane id=":J22_4_0" index="0" speed="6.51" length="9.03" shape="13.60,8.00 11.15,8.35 9.40,9.40 8.35,11.15 8.00,13.60"/>
    </edge>
    <edge id=":J22_5" function="internal">
        <lane id=":J22_5_0" index="0" speed="13.89" length="27.20" shape="13.60,8.00 -13.60,8.00"/>
        <lane id=":J22_5_1" index="1" speed="13.89" length="27.20" shape="13.60,4.80 -13.60,4.80"/>
    </edge>
    <edge id=":J22_7" function="internal">
        <lane id=":J22_7_0" index="0" speed="10.36" length="12.07" shape="13.60,1.60 6.95,0.65 2.36,-2.10"/>
    </edge>
    <edge id=":J22_17" function="internal">
        <lane id=":J22_17_0" index="0" speed="10.36" length="12.44" shape="2.36,-2.10 2.20,-2.20 -0.65,-6.95 -1.60,-13.60"/>
    </edge>
    <edge id=":J22_8" function="internal">
        <lane id=":J22_8_0" index="0" speed="6.51" length="9.03" shape="8.00,-13.60 8.35,-11.15 9.40,-9.40 11.15,-8.35 13.60,-8.00"/>
    </edge>
    <edge id=":J22_9" function="internal">
        <lane id=":J22_9_0" index="0" speed="13.89" length="27.20" shape="8.00,-13.60 8.00,13.60"/>
        <lane id=":J22_9_1" index="1" speed="13.89" length="27.20" shape="4.80,-13.60 4.80,13.60"/>
    </edge>
    <edge id=":J22_11" function="internal">
        <lane id=":J22_11_0" index="0" speed="10.36" length="12.07" shape="1.60,-13.60 0.65,-6.95 -2.10,-2.36"/>
    </edge>
    <edge id=":J22_18" function="internal">
        <lane id=":J22_18_0" index="0" speed="10.36" length="12.44" shape="-2.10,-2.36 -2.20,-2.20 -6.95,0.65 -13.60,1.60"/>
    </edge>
    <edge id=":J22_12" function="internal">
        <lane id=":J22_12_0" index="0" speed="6.51" length="9.03" shape="-13.60,-8.00 -11.15,-8.35 -9.40,-9.40 -8.35,-11.15 -8.00,-13.60"/>
    </edge>
    <edge id=":J22_13" function="internal">
        <lane id=":J22_13_0" index="0" speed="13.89" length="27.20" shape="-13.60,-8.00 13.60,-8.00"/>
        <lane id=":J22_13_1" index="1" speed="13.89" length="27.20" shape="-13.60,-4.80 13.60,-4.80"/>
    </edge>
    <edge id=":J22_15" function="internal">
        <lane id=":J22_15_0" index="0" speed="10.36" length="12.07" shape="-13.60,-1.60 -6.95,-0.65 -2.36,2.10"/>
    </edge>
    <edge id=":J22_19" function="internal">
        <lane id=":J22_19_0" index="0" speed="10.36" length="12.44" shape="-2.36,2.10 -2.20,2.20 0.65,6.95 1.60,13.60"/>
    </edge>
    <edge id=":J23_0" function="internal">
        <lane id=":J23_0_0" index="0" speed="6.51" length="9.03" shape="292.00,13.60 291.65,11.15 290.60,9.40 288.85,8.35 286.40,8.00"/>
    </edge>
    <edge id=":J23_1" function="internal">
        <lane id=":J23_1_0" index="0" speed="13.89" length="27.20" shape="292.00,13.60 292.00,-13.60"/>
        <lane id=":J23_1_1" index="1" speed="13.89" length="27.20" shape="295.20,13.60 295.20,-13.60"/>
    </edge>
    <edge id=":J23_3" function="internal">
        <lane id=":J23_3_0" index="0" speed="10.36" length="12.07" shape="298.40,13.60 299.35,6.95 302.10,2.36"/>
    </edge>
    <edge id=":J23_16" function="internal">
        <lane id=":J23_16_0" index="0" speed="10.36" length="12.44" shape="302.10,2.36 302.20,2.20 306.95,-0.65 313.60,-1.60"/>
    </edge>
    <edge id=":J23_4" function="internal">
        <lane id=":J23_4_0" index="0" speed="6.51" length="9.03" shape="313.60,8.00 311.15,8.35 309.40,9.40 308.35,11.15 308.00,13.60"/>
    </edge>
    <edge id=":J23_5" function="internal">
        <lane id=":J23_5_0" index="0" speed="13.89" length="27.20" shape="313.60,8.00 286.40,8.00"/>
        <lane id=":J23_5_1" index="1" speed="13.89" length="27.20" shape="313.60,4.80 286.40,4.80"/>
    </edge>
    <edge id=":J23_7" function="internal">
        <lane id=":J23_7_0" index="0" speed="10.36" length="12.07" shape="313.60,1.60 306.95,0.65 302.36,-2.10"/>
    </edge>
    <edge id=":J23_17" function="internal">
        <lane id=":J23_17_0" index="0" speed="10.36" length="12.44" shape="302.36,-2.10 302.20,-2.20 299.35,-6.95 298.40,-13.60"/>
    </edge>
    <edge id=":J23_8" function="internal">
        <lane id=":J23_8_0" index="0" speed="6.51" length="9.03" shape="308.00,-13.60 308.35,-11.15 309.40,-9.40 311.15,-8.35 313.60,-8.00"/>
    </edge>
    <edge id=":J23_9" function="internal">
        <lane id=":J23_9_0" index="0" speed="13.89" length="27.20" shape="308.00,-13.60 308.00,13.60"/>
        <lane id=":J23_9_1" index="1" speed="13.89" length="27.20" shape="304.80,-13.60 304.80,13.60"/>
    </edge>
    <edge id=":J23_11" function="internal">