<?xml version="1.0" encoding="UTF-8"?>

<!-- generated on 2025-01-13 01:55:51.716614 by randomTrips.py v1_20_0+0002-343658e7c64
<configuration>
    <net-file value="3x6.net.xml"/>
    <output-trip-file value="trips.trips.xml"/>
    <route-file value="3x6_medium.rou.xml"/>
    <trip-attributes value="departSpeed='max'"/>
    <fringe-factor value="max"/>
    <insertion-density value="150.0"/>
</configuration>
-->

<!-- generated on 2025-01-13 01:55:51 by Eclipse SUMO duarouter Version 1.20.0
<configuration xmlns:xsi="http://www.w3.org/2001/XMLSchema-instance" xsi:noNamespaceSchemaLocation="http://sumo.dlr.de/xsd/duarouterConfiguration.xsd">

    <input>
        <net-file value="3x6.net.xml"/>
        <route-files value="trips.trips.xml"/>
    </input>

    <output>
        <output-file value="3x6_medium.rou.xml"/>
        <alternatives-output value="NUL"/>
    </output>

    <time>
        <begin value="0"/>
        <end value="3600"/>
    </time>

    <report>
        <no-warnings value="true"/>
        <ignore-errors value="true"/>
        <no-step-log value="true"/>
    </report>

</configuration>
-->

<routes xmlns:xsi="http://www.w3.org/2001/XMLSchema-instance" xsi:noNamespaceSchemaLocation="http://sumo.dlr.de/xsd/routes_file.xsd">
    <vehicle id="0" depart="0.00" departSpeed="max">
        <route edges="E37_36 E36_35 E35_34 E34_33 E33_32 E32_31 E31_21 E21_11 E11_01"/>
    </vehicle>
    <vehicle id="1" depart="0.30" departSpeed="max">
        <route edges="E05_15 E15_14 E14_04"/>
    </vehicle>
    <vehicle id="2" depart="0.60" departSpeed="max">
        <route edges="E42_32 E32_31 E31_21 E21_22 E22_32 E32_42"/>
    </vehicle>
    <vehicle id="3" depart="0.89" departSpeed="max">
        <route edges="E45_35 E35_25 E25_15 E15_14 E14_13 E13_12 E12_11 E11_10"/>
    </vehicle>
    <vehicle id="4" depart="1.19" departSpeed="max">
        <route edges="E17_16 E16_15 E15_14 E14_13 E13_12 E12_11 E11_01"/>
    </vehicle>
    <vehicle id="5" depart="1.49" departSpeed="max">
        <route edges="E04_14 E14_24 E24_25 E25_26 E26_27"/>
    </vehicle>
    <vehicle id="6" depart="1.79" departSpeed="max">
        <route edges="E01_11 E11_12 E12_13 E13_03"/>
    </vehicle>
    <vehicle id="7" depart="2.09" departSpeed="max">
        <route edges="E37_36 E36_26 E26_27"/>
    </vehicle>
    <vehicle id="8" depart="2.38" departSpeed="max">
        <route edges="E04_14 E14_24 E24_34 E34_33 E33_32 E32_31 E31_30"/>
    </vehicle>
    <vehicle id="9" depart="2.68" departSpeed="max">
        <route edges="E43_33 E33_32 E32_31 E31_21 E21_11 E11_01"/>
    </vehicle>
    <vehicle id="10" depart="2.98" departSpeed="max">
        <route edges="E43_33 E33_32 E32_42"/>
    </vehicle>
    <vehicle id="11" depart="3.28" departSpeed="max">
        <route edges="E10_11 E11_12 E12_02"/>
    </vehicle>
    <vehicle id="12" depart="3.58" departSpeed="max">
        <route edges="E46_36 E36_26 E26_16 E16_06"/>
    </vehicle>
    <vehicle id="13" depart="3.87" departSpeed="max">
        <route edges="E02_12 E12_11 E11_10"/>
    </vehicle>
    <vehicle id="14" depart="4.17" departSpeed="max">
        <route edges="E44_34 E34_33 E33_32 E32_31 E31_30"/>
    </vehicle>
    <vehicle id="15" depart="4.47" departSpeed="max">
        <route edges="E43_33 E33_32 E32_22 E22_23 E23_33 E33_43"/>
    </vehicle>
    <vehicle id="16" depart="4.77" departSpeed="max">
        <route edges="E27_26 E26_36 E36_46"/>
    </vehicle>
    <vehicle id="17" depart="5.07" departSpeed="max">
        <route edges="E10_11 E11_12 E12_13 E13_14 E14_15 E15_16 E16_26 E26_27"/>
    </vehicle>
    <vehicle id="18" depart="5.36" departSpeed="max">
        <route edges="E43_33 E33_32 E32_31 E31_41"/>
    </vehicle>
    <vehicle id="19" depart="5.66" departSpeed="max">
        <route edges="E44_34 E34_33 E33_32 E32_31 E31_30"/>
    </vehicle>
    <vehicle id="20" depart="5.96" departSpeed="max">
        <route edges="E41_31 E31_21 E21_11 E11_01"/>
    </vehicle>
    <vehicle id="21" depart="6.26" departSpeed="max">
        <route edges="E05_15 E15_16 E16_26 E26_25 E25_15 E15_05"/>
    </vehicle>
    <vehicle id="22" depart="6.56" departSpeed="max">
        <route edges="E02_12 E12_13 E13_14 E14_04"/>
    </vehicle>
    <vehicle id="23" depart="6.86" departSpeed="max">
        <route edges="E02_12 E12_13 E13_14 E14_15 E15_05"/>
    </vehicle>
    <vehicle id="24" depart="7.15" departSpeed="max">
        <route edges="E37_36 E36_26 E26_16 E16_06"/>
    </vehicle>
    <vehicle id="25" depart="7.45" departSpeed="max">
        <route edges="E10_11 E11_12 E12_13 E13_03"/>
    </vehicle>
    <vehicle id="26" depart="7.75" departSpeed="max">
        <route edges="E05_15 E15_25 E25_35 E35_36 E36_37"/>
    </vehicle>
    <vehicle id="27" depart="8.05" departSpeed="max">
        <route edges="E37_36 E36_35 E35_34 E34_33 E33_32 E32_31 E31_30"/>
    </vehicle>
    <vehicle id="28" depart="8.35" departSpeed="max">
        <route edges="E04_14 E14_24 E24_23 E23_33 E33_43"/>
    </vehicle>
    <vehicle id="29" depart="8.64" departSpeed="max">
        <route edges="E03_13 E13_14 E14_15 E15_16 E16_06"/>
    </vehicle>
    <vehicle id="30" depart="8.94" departSpeed="max">
        <route edges="E46_36 E36_35 E35_34 E34_33 E33_32 E32_31 E31_41"/>
    </vehicle>
    <vehicle id="31" depart="9.24" departSpeed="max">
        <route edges="E30_31 E31_32 E32_42"/>
    </vehicle>
    <vehicle id="32" depart="9.54" departSpeed="max">
        <route edges="E44_34 E34_33 E33_43"/>
    </vehicle>
    <vehicle id="33" depart="9.84" departSpeed="max">
        <route edges="E05_15 E15_14 E14_13 E13_12 E12_11 E11_01"/>
    </vehicle>
    <vehicle id="34" depart="10.13" departSpeed="max">
        <route edges="E06_16 E16_15 E15_14 E14_04"/>
    </vehicle>
    <vehicle id="35" depart="10.43" departSpeed="max">
        <route edges="E04_14 E14_24 E24_34 E34_35 E35_36 E36_37"/>
    </vehicle>
    <vehicle id="36" depart="10.73" departSpeed="max">
        <route edges="E44_34 E34_35 E35_25 E25_15 E15_05"/>
    </vehicle>
    <vehicle id="37" depart="11.03" departSpeed="max">
        <route edges="E37_36 E36_26 E26_16 E16_17"/>
    </vehicle>
    <vehicle id="38" depart="11.33" departSpeed="max">
        <route edges="E45_35 E35_25 E25_24 E24_23 E23_22 E22_21 E21_20"/>
    </vehicle>
    <vehicle id="39" depart="11.62" departSpeed="max">
        <route edges="E05_15 E15_14 E14_04"/>
    </vehicle>
    <vehicle id="40" depart="11.92" departSpeed="max">
        <route edges="E30_31 E31_32 E32_33 E33_34 E34_24 E24_14 E14_04"/>
    </vehicle>
    <vehicle id="41" depart="12.22" departSpeed="max">
        <route edges="E30_31 E31_32 E32_33 E33_34 E34_35 E35_36 E36_37"/>
    </vehicle>
    <vehicle id="42" depart="12.52" departSpeed="max">
        <route edges="E17_16 E16_15 E15_14 E14_13 E13_03"/>
    </vehicle>
    <vehicle id="43" depart="12.82" departSpeed="max">
        <route edges="E46_36 E36_26 E26_27"/>
    </vehicle>
    <vehicle id="44" depart="13.11" departSpeed="max">
        <route edges="E02_12 E12_11 E11_01"/>
    </vehicle>
    <vehicle id="45" depart="13.41" departSpeed="max">
        <route edges="E02_12 E12_11 E11_21 E21_31 E31_41"/>
    </vehicle>
    <vehicle id="46" depart="13.71" departSpeed="max">
        <route edges="E43_33 E33_23 E23_13 E13_14 E14_15 E15_16 E16_17"/>
    </vehicle>
    <vehicle id="47" depart="14.01" departSpeed="max">
        <route edges="E02_12 E12_13 E13_14 E14_15 E15_16 E16_06"/>
    </vehicle>
    <vehicle id="48" depart="14.31" departSpeed="max">
        <route edges="E46_36 E36_26 E26_27"/>
    </vehicle>
    <vehicle id="49" depart="14.60" departSpeed="max">
        <route edges="E46_36 E36_35 E35_45"/>
    </vehicle>
    <vehicle id="50" depart="14.90" departSpeed="max">
        <route edges="E01_11 E11_12 E12_22 E22_32 E32_42"/>
    </vehicle>
    <vehicle id="51" depart="15.20" departSpeed="max">
        <route edges="E41_31 E31_21 E21_22 E22_23 E23_24 E24_25 E25_26 E26_27"/>
    </vehicle>
    <vehicle id="52" depart="15.50" departSpeed="max">
        <route edges="E05_15 E15_25 E25_35 E35_34 E34_33 E33_32 E32_31 E31_41"/>
    </vehicle>
    <vehicle id="53" depart="15.80" departSpeed="max">
        <route edges="E03_13 E13_14 E14_15 E15_16 E16_17"/>
    </vehicle>
    <vehicle id="54" depart="16.09" departSpeed="max">
        <route edges="E20_21 E21_22 E22_23 E23_24 E24_25 E25_26 E26_36 E36_46"/>
    </vehicle>
    <vehicle id="55" depart="16.39" departSpeed="max">
        <route edges="E44_34 E34_24 E24_14 E14_04"/>
    </vehicle>
    <vehicle id="56" depart="16.69" departSpeed="max">
        <route edges="E27_26 E26_25 E25_24 E24_23 E23_13 E13_03"/>
    </vehicle>
    <vehicle id="57" depart="16.99" departSpeed="max">
        <route edges="E45_35 E35_34 E34_24 E24_25 E25_35 E35_45"/>
    </vehicle>
    <vehicle id="58" depart="17.29" departSpeed="max">
        <route edges="E06_16 E16_26 E26_25 E25_24 E24_23 E23_22 E22_21 E21_31 E31_41"/>
    </vehicle>
    <vehicle id="59" depart="17.58" departSpeed="max">
        <route edges="E30_31 E31_32 E32_22 E22_12 E12_02"/>
    </vehicle>
    <vehicle id="60" depart="17.88" departSpeed="max">
        <route edges="E42_32 E32_22 E22_23 E23_24 E24_25 E25_26 E26_27"/>
    </vehicle>
    <vehicle id="61" depart="18.18" departSpeed="max">
        <route edges="E43_33 E33_23 E23_24 E24_25 E25_26 E26_27"/>
    </vehicle>
    <vehicle id="62" depart="18.48" departSpeed="max">
        <route edges="E01_11 E11_12 E12_13 E13_14 E14_15 E15_05"/>
    </vehicle>
    <vehicle id="63" depart="18.78" departSpeed="max">
        <route edges="E01_11 E11_21 E21_31 E31_32 E32_33 E33_34 E34_35 E35_36 E36_37"/>
    </vehicle>
    <vehicle id="64" depart="19.07" departSpeed="max">
        <route edges="E44_34 E34_24 E24_25 E25_35 E35_34 E34_44"/>
    </vehicle>
    <vehicle id="65" depart="19.37" departSpeed="max">
        <route edges="E06_16 E16_15 E15_14 E14_13 E13_12 E12_11 E11_10"/>
    </vehicle>
    <vehicle id="66" depart="19.67" departSpeed="max">
        <route edges="E44_34 E34_35 E35_36 E36_46"/>
    </vehicle>
    <vehicle id="67" depart="19.97" departSpeed="max">
        <route edges="E02_12 E12_22 E22_21 E21_20"/>
    </vehicle>
    <vehicle id="68" depart="20.27" departSpeed="max">
        <route edges="E02_12 E12_13 E13_23 E23_33 E33_43"/>
    </vehicle>
    <vehicle id="69" depart="20.57" departSpeed="max">
        <route edges="E42_32 E32_22 E22_12 E12_02"/>
    </vehicle>
    <vehicle id="70" depart="20.86" departSpeed="max">
        <route edges="E20_21 E21_22 E22_23 E23_24 E24_25 E25_26 E26_27"/>
    </vehicle>
    <vehicle id="71" depart="21.16" departSpeed="max">
        <route edges="E05_15 E15_25 E25_35 E35_45"/>
    </vehicle>
    <vehicle id="72" depart="21.46" departSpeed="max">
        <route edges="E17_16 E16_15 E15_14 E14_13 E13_03"/>
    </vehicle>
    <vehicle id="73" depart="21.76" departSpeed="max">
        <route edges="E27_26 E26_25 E25_24 E24_23 E23_33 E33_43"/>
    </vehicle>
    <vehicle id="74" depart="22.06" departSpeed="max">
        <route edges="E04_14 E14_15 E15_05"/>
    </vehicle>
    <vehicle id="75" depart="22.35" departSpeed="max">
        <route edges="E46_36 E36_35 E35_34 E34_33 E33_32 E32_31 E31_41"/>
    </vehicle>
    <vehicle id="76" depart="22.65" departSpeed="max">
        <route edges="E17_16 E16_26 E26_27"/>
    </vehicle>
    <vehicle id="77" depart="22.95" departSpeed="max">
        <route edges="E03_13 E13_14 E14_04"/>
    </vehicle>
    <vehicle id="78" depart="23.25" departSpeed="max">
        <route edges="E10_11 E11_21 E21_31 E31_30"/>
    </vehicle>
    <vehicle id="79" depart="23.55" departSpeed="max">
        <route edges="E05_15 E15_14 E14_13 E13_03"/>
    </vehicle>
    <vehicle id="80" depart="23.84" departSpeed="max">
        <route edges="E02_12 E12_11 E11_21 E21_31 E31_41"/>
    </vehicle>
    <vehicle id="81" depart="24.14" departSpeed="max">
        <route edges="E05_15 E15_25 E25_35 E35_36 E36_37"/>
    </vehicle>
    <vehicle id="82" depart="24.44" departSpeed="max">
        <route edges="E44_34 E34_24 E24_14 E14_13 E13_12 E12_11 E11_10"/>
    </vehicle>
    <vehicle id="83" depart="24.74" departSpeed="max">
        <route edges="E05_15 E15_14 E14_13 E13_12 E12_22 E22_32 E32_42"/>
    </vehicle>
    <vehicle id="84" depart="25.04" departSpeed="max">
        <route edges="E04_14 E14_13 E13_12 E12_02"/>
    </vehicle>
    <vehicle id="85" depart="25.33" departSpeed="max">
        <route edges="E45_35 E35_34 E34_33 E33_32 E32_31 E31_30"/>
    </vehicle>
    <vehicle id="86" depart="25.63" departSpeed="max">
        <route edges="E20_21 E21_22 E22_23 E23_24 E24_34 E34_44"/>
    </vehicle>
    <vehicle id="87" depart="25.93" departSpeed="max">
        <route edges="E43_33 E33_23 E23_13 E13_03"/>
    </vehicle>
    <vehicle id="88" depart="26.23" departSpeed="max">
        <route edges="E02_12 E12_13 E13_14 E14_15 E15_16 E16_17"/>
    </vehicle>
    <vehicle id="89" depart="26.53" departSpeed="max">
        <route edges="E17_16 E16_26 E26_25 E25_24 E24_23 E23_22 E22_21 E21_20"/>
    </vehicle>
    <vehicle id="90" depart="26.82" departSpeed="max">
        <route edges="E42_32 E32_31 E31_21 E21_22 E22_32 E32_42"/>
    </vehicle>
    <vehicle id="91" depart="27.12" departSpeed="max">
        <route edges="E46_36 E36_26 E26_16 E16_15 E15_14 E14_13 E13_12 E12_11 E11_10"/>
    </vehicle>
    <vehicle id="92" depart="27.42" departSpeed="max">
        <route edges="E17_16 E16_06"/>
    </vehicle>
    <vehicle id="93" depart="27.72" departSpeed="max">
        <route edges="E44_34 E34_24 E24_14 E14_04"/>
    </vehicle>
    <vehicle id="94" depart="28.02" departSpeed="max">
        <route edges="E04_14 E14_24 E24_23 E23_22 E22_21 E21_20"/>
    </vehicle>
    <vehicle id="95" depart="28.31" departSpeed="max">
        <route edges="E17_16 E16_15 E15_05"/>
    </vehicle>
    <vehicle id="96" depart="28.61" departSpeed="max">
        <route edges="E05_15 E15_25 E25_35 E35_36 E36_37"/>
    </vehicle>
    <vehicle id="97" depart="28.91" departSpeed="max">
        <route edges="E17_16 E16_15 E15_25 E25_35 E35_45"/>
    </vehicle>
    <vehicle id="98" depart="29.21" departSpeed="max">
        <route edges="E27_26 E26_25 E25_24 E24_23 E23_22 E22_21 E21_11 E11_01"/>
    </vehicle>
    <vehicle id="99" depart="29.51" departSpeed="max">
        <route edges="E46_36 E36_35 E35_45"/>
    </vehicle>
    <vehicle id="100" depart="29.80" departSpeed="max">
        <route edges="E46_36 E36_37"/>
    </vehicle>
    <vehicle id="101" depart="30.10" departSpeed="max">
        <route edges="E44_34 E34_33 E33_32 E32_22 E22_12 E12_02"/>
    </vehicle>
    <vehicle id="102" depart="30.40" departSpeed="max">
        <route edges="E20_21 E21_22 E22_23 E23_13 E13_03"/>
    </vehicle>
    <vehicle id="103" depart="30.70" departSpeed="max">
        <route edges="E17_16 E16_15 E15_14 E14_13 E13_12 E12_11 E11_10"/>
    </vehicle>
    <vehicle id="104" depart="31.00" departSpeed="max">
        <route edges="E10_11 E11_12 E12_13 E13_14 E14_15 E15_16 E16_26 E26_36 E36_46"/>
    </vehicle>
    <vehicle id="105" depart="31.29" departSpeed="max">
        <route edges="E05_15 E15_14 E14_24 E24_34 E34_44"/>
    </vehicle>
    <vehicle id="106" depart="31.59" departSpeed="max">
        <route edges="E20_21 E21_11 E11_12 E12_13 E13_14 E14_15 E15_16 E16_17"/>
    </vehicle>
    <vehicle id="107" depart="31.89" departSpeed="max">
        <route edges="E46_36 E36_35 E35_25 E25_26 E26_36 E36_46"/>
    </vehicle>
    <vehicle id="108" depart="32.19" departSpeed="max">
        <route edges="E30_31 E31_32 E32_42"/>
    </vehicle>
    <vehicle id="109" depart="32.49" departSpeed="max">
        <route edges="E03_13 E13_14 E14_15 E15_05"/>
    </vehicle>
    <vehicle id="110" depart="32.78" departSpeed="max">
        <route edges="E46_36 E36_35 E35_34 E34_33 E33_32 E32_31 E31_30"/>
    </vehicle>
    <vehicle id="111" depart="33.08" departSpeed="max">
        <route edges="E27_26 E26_25 E25_24 E24_23 E23_33 E33_43"/>
    </vehicle>
    <vehicle id="112" depart="33.38" departSpeed="max">
        <route edges="E02_12 E12_22 E22_32 E32_31 E31_30"/>
    </vehicle>
    <vehicle id="113" depart="33.68" departSpeed="max">
        <route edges="E27_26 E26_25 E25_35 E35_45"/>
    </vehicle>
    <vehicle id="114" depart="33.98" departSpeed="max">
        <route edges="E03_13 E13_14 E14_15 E15_16 E16_26 E26_36 E36_46"/>
    </vehicle>
    <vehicle id="115" depart="34.28" departSpeed="max">
        <route edges="E02_12 E12_13 E13_03"/>
    </vehicle>
    <vehicle id="116" depart="34.57" departSpeed="max">
        <route edges="E30_31 E31_32 E32_42"/>
    </vehicle>
    <vehicle id="117" depart="34.87" departSpeed="max">
        <route edges="E05_15 E15_14 E14_13 E13_12 E12_02"/>
    </vehicle>
    <vehicle id="118" depart="35.17" departSpeed="max">
        <route edges="E45_35 E35_34 E34_24 E24_14 E14_04"/>
    </vehicle>
    <vehicle id="119" depart="35.47" departSpeed="max">
        <route edges="E30_31 E31_41"/>
    </vehicle>
    <vehicle id="120" depart="35.77" departSpeed="max">
        <route edges="E17_16 E16_15 E15_14 E14_13 E13_23 E23_33 E33_32 E32_31 E31_30"/>
    </vehicle>
    <vehicle id="121" depart="36.06" departSpeed="max">
        <route edges="E27_26 E26_36 E36_37"/>
    </vehicle>
    <vehicle id="122" depart="36.36" departSpeed="max">
        <route edges="E04_14 E14_24 E24_23 E23_22 E22_32 E32_42"/>
    </vehicle>
    <vehicle id="123" depart="36.66" departSpeed="max">
        <route edges="E05_15 E15_16 E16_17"/>
    </vehicle>
    <vehicle id="124" depart="36.96" departSpeed="max">
        <route edges="E41_31 E31_21 E21_22 E22_23 E23_24 E24_25 E25_15 E15_05"/>
    </vehicle>
    <vehicle id="125" depart="37.26" departSpeed="max">
        <route edges="E06_16 E16_26 E26_25 E25_24 E24_23 E23_33 E33_43"/>
    </vehicle>
    <vehicle id="126" depart="37.55" departSpeed="max">
        <route edges="E02_12 E12_22 E22_21 E21_20"/>
    </vehicle>
    <vehicle id="127" depart="37.85" departSpeed="max">
        <route edges="E46_36 E36_35 E35_25 E25_26 E26_36 E36_46"/>
    </vehicle>
    <vehicle id="128" depart="38.15" departSpeed="max">
        <route edges="E02_12 E12_13 E13_03"/>
    </vehicle>
    <vehicle id="129" depart="38.45" departSpeed="max">
        <route edges="E05_15 E15_25 E25_35 E35_36 E36_37"/>
    </vehicle>
    <vehicle id="130" depart="38.75" departSpeed="max">
        <route edges="E44_34 E34_35 E35_45"/>
    </vehicle>
    <vehicle id="131" depart="39.04" departSpeed="max">
        <route edges="E10_11 E11_12 E12_02"/>
    </vehicle>
    <vehicle id="132" depart="39.34" departSpeed="max">
        <route edges="E44_34 E34_33 E33_32 E32_42"/>
    </vehicle>
    <vehicle id="133" depart="39.64" departSpeed="max">
        <route edges="E37_36 E36_46"/>
    </vehicle>
    <vehicle id="134" depart="39.94" departSpeed="max">
        <route edges="E37_36 E36_35 E35_34 E34_33 E33_32 E32_31 E31_21 E21_11 E11_01"/>
    </vehicle>
    <vehicle id="135" depart="40.24" departSpeed="max">
        <route edges="E43_33 E33_23 E23_24 E24_25 E25_15 E15_05"/>
    </vehicle>
    <vehicle id="136" depart="40.53" departSpeed="max">
        <route edges="E37_36 E36_35 E35_25 E25_26 E26_36 E36_37"/>
    </vehicle>
    <vehicle id="137" depart="40.83" departSpeed="max">
        <route edges="E03_13 E13_12 E12_02"/>
    </vehicle>
    <vehicle id="138" depart="41.13" departSpeed="max">
        <route edges="E02_12 E12_22 E22_23 E23_24 E24_25 E25_26 E26_27"/>
    </vehicle>
    <vehicle id="139" depart="41.43" departSpeed="max">
        <route edges="E05_15 E15_25 E25_35 E35_34 E34_33 E33_32 E32_31 E31_30"/>
    </vehicle>
    <vehicle id="140" depart="41.73" departSpeed="max">
        <route edges="E41_31 E31_21 E21_11 E11_12 E12_13 E13_03"/>
    </vehicle>
    <vehicle id="141" depart="42.02" departSpeed="max">
        <route edges="E37_36 E36_35 E35_34 E34_24 E24_14 E14_04"/>
    </vehicle>
    <vehicle id="142" depart="42.32" departSpeed="max">
        <route edges="E20_21 E21_22 E22_23 E23_24 E24_25 E25_26 E26_36 E36_37"/>
    </vehicle>
    <vehicle id="143" depart="42.62" departSpeed="max">
        <route edges="E44_34 E34_24 E24_14 E14_13 E13_12 E12_11 E11_10"/>
    </vehicle>
    <vehicle id="144" depart="42.92" departSpeed="max">
        <route edges="E17_16 E16_15 E15_14 E14_04"/>
    </vehicle>
    <vehicle id="145" depart="43.22" departSpeed="max">
        <route edges="E01_11 E11_12 E12_13 E13_23 E23_33 E33_43"/>
    </vehicle>
    <vehicle id="146" depart="43.51" departSpeed="max">
        <route edges="E37_36 E36_35 E35_34 E34_24 E24_14 E14_04"/>
    </vehicle>
    <vehicle id="147" depart="43.81" departSpeed="max">
        <route edges="E42_32 E32_22 E22_23 E23_24 E24_25 E25_26 E26_27"/>
    </vehicle>
    <vehicle id="148" depart="44.11" departSpeed="max">
        <route edges="E17_16 E16_15 E15_14 E14_13 E13_12 E12_11 E11_01"/>
    </vehicle>
    <vehicle id="149" depart="44.41" departSpeed="max">
        <route edges="E02_12 E12_22 E22_23 E23_24 E24_25 E25_35 E35_45"/>
    </vehicle>
    <vehicle id="150" depart="44.71" departSpeed="max">
        <route edges="E45_35 E35_25 E25_26 E26_27"/>
    </vehicle>
    <vehicle id="151" depart="45.00" departSpeed="max">
        <route edges="E44_34 E34_33 E33_32 E32_31 E31_30"/>
    </vehicle>
    <vehicle id="152" depart="45.30" departSpeed="max">
        <route edges="E03_13 E13_12 E12_02"/>
    </vehicle>
    <vehicle id="153" depart="45.60" departSpeed="max">
        <route edges="E06_16 E16_26 E26_36 E36_37"/>
    </vehicle>
    <vehicle id="154" depart="45.90" departSpeed="max">
        <route edges="E43_33 E33_34 E34_35 E35_45"/>
    </vehicle>
    <vehicle id="155" depart="46.20" departSpeed="max">
        <route edges="E45_35 E35_25 E25_15 E15_14 E14_13 E13_03"/>
    </vehicle>
    <vehicle id="156" depart="46.49" departSpeed="max">
        <route edges="E05_15 E15_14 E14_13 E13_12 E12_11 E11_10"/>
    </vehicle>
    <vehicle id="157" depart="46.79" departSpeed="max">
        <route edges="E43_33 E33_34 E34_35 E35_45"/>
    </vehicle>
    <vehicle id="158" depart="47.09" departSpeed="max">
        <route edges="E17_16 E16_15 E15_14 E14_13 E13_12 E12_11 E11_21 E21_31 E31_41"/>
    </vehicle>
    <vehicle id="159" depart="47.39" departSpeed="max">
        <route edges="E03_13 E13_23 E23_33 E33_34 E34_35 E35_36 E36_37"/>
    </vehicle>
    <vehicle id="160" depart="47.69" departSpeed="max">
        <route edges="E44_34 E34_35 E35_36 E36_46"/>
    </vehicle>
    <vehicle id="161" depart="47.99" departSpeed="max">
        <route edges="E43_33 E33_34 E34_35 E35_45"/>
    </vehicle>
    <vehicle id="162" depart="48.28" departSpeed="max">
        <route edges="E01_11 E11_12 E12_13 E13_23 E23_33 E33_43"/>
    </vehicle>
    <vehicle id="163" depart="48.58" departSpeed="max">
        <route edges="E06_16 E16_26 E26_36 E36_37"/>
    </vehicle>
    <vehicle id="164" depart="48.88" departSpeed="max">
        <route edges="E43_33 E33_34 E34_35 E35_45"/>
    </vehicle>
    <vehicle id="165" depart="49.18" departSpeed="max">
        <route edges="E43_33 E33_23 E23_24 E24_14 E14_04"/>
    </vehicle>
    <vehicle id="166" depart="49.48" departSpeed="max">
        <route edges="E43_33 E33_23 E23_13 E13_12 E12_11 E11_10"/>
    </vehicle>
    <vehicle id="167" depart="49.77" departSpeed="max">
        <route edges="E44_34 E34_35 E35_45"/>
    </vehicle>
    <vehicle id="168" depart="50.07" departSpeed="max">
        <route edges="E05_15 E15_14 E14_24 E24_34 E34_44"/>
    </vehicle>
    <vehicle id="169" depart="50.37" departSpeed="max">
        <route edges="E20_21 E21_22 E22_23 E23_24 E24_25 E25_15 E15_05"/>
    </vehicle>
    <vehicle id="170" depart="50.67" departSpeed="max">
        <route edges="E43_33 E33_23 E23_24 E24_14 E14_04"/>
    </vehicle>
    <vehicle id="171" depart="50.97" departSpeed="max">
        <route edges="E01_11 E11_12 E12_13 E13_03"/>
    </vehicle>
    <vehicle id="172" depart="51.26" departSpeed="max">
        <route edges="E06_16 E16_15 E15_25 E25_35 E35_45"/>
    </vehicle>
    <vehicle id="173" depart="51.56" departSpeed="max">
        <route edges="E46_36 E36_35 E35_25 E25_15 E15_05"/>
    </vehicle>
    <vehicle id="174" depart="51.86" departSpeed="max">
        <route edges="E37_36 E36_26 E26_16 E16_17"/>
    </vehicle>
    <vehicle id="175" depart="52.16" departSpeed="max">
        <route edges="E46_36 E36_26 E26_27"/>
    </vehicle>
    <vehicle id="176" depart="52.46" departSpeed="max">
        <route edges="E45_35 E35_25 E25_24 E24_23 E23_22 E22_12 E12_02"/>
    </vehicle>
    <vehicle id="177" depart="52.75" departSpeed="max">
        <route edges="E46_36 E36_26 E26_25 E25_24 E24_23 E23_13 E13_03"/>
    </vehicle>
    <vehicle id="178" depart="53.05" departSpeed="max">
        <route edges="E46_36 E36_35 E35_34 E34_24 E24_14 E14_04"/>
    </vehicle>
    <vehicle id="179" depart="53.35" departSpeed="max">
        <route edges="E02_12 E12_13 E13_14 E14_15 E15_16 E16_17"/>
    </vehicle>
    <vehicle id="180" depart="53.65" departSpeed="max">
        <route edges="E42_32 E32_33 E33_34 E34_35 E35_25 E25_15 E15_05"/>
    </vehicle>
    <vehicle id="181" depart="53.95" departSpeed="max">
        <route edges="E30_31 E31_21 E21_22 E22_23 E23_24 E24_25 E25_26 E26_27"/>
    </vehicle>
    <vehicle id="182" depart="54.24" departSpeed="max">
        <route edges="E10_11 E11_21 E21_31 E31_30"/>
    </vehicle>
    <vehicle id="183" depart="54.54" departSpeed="max">
        <route edges="E05_15 E15_14 E14_13 E13_12 E12_22 E22_32 E32_42"/>
    </vehicle>
    <vehicle id="184" depart="54.84" departSpeed="max">
        <route edges="E01_11 E11_21 E21_31 E31_32 E32_33 E33_34 E34_35 E35_36 E36_37"/>
    </vehicle>
    <vehicle id="185" depart="55.14" departSpeed="max">
        <route edges="E27_26 E26_25 E25_24 E24_23 E23_22 E22_32 E32_42"/>
    </vehicle>
    <vehicle id="186" depart="55.44" departSpeed="max">
        <route edges="E42_32 E32_31 E31_21 E21_22 E22_32 E32_42"/>
    </vehicle>
    <vehicle id="187" depart="55.73" departSpeed="max">
        <route edges="E10_11 E11_12 E12_22 E22_21 E21_11 E11_10"/>
    </vehicle>
    <vehicle id="188" depart="56.03" departSpeed="max">
        <route edges="E37_36 E36_35 E35_25 E25_15 E15_05"/>
    </vehicle>
    <vehicle id="189" depart="56.33" departSpeed="max">
        <route edges="E06_16 E16_15 E15_25 E25_35 E35_45"/>
    </vehicle>
    <vehicle id="190" depart="56.63" departSpeed="max">
        <route edges="E41_31 E31_21 E21_22 E22_23 E23_24 E24_25 E25_15 E15_05"/>
    </vehicle>
    <vehicle id="191" depart="56.93" departSpeed="max">
        <route edges="E06_16 E16_17"/>
    </vehicle>
    <vehicle id="192" depart="57.22" departSpeed="max">
        <route edges="E17_16 E16_15 E15_05"/>
    </vehicle>
    <vehicle id="193" depart="57.52" departSpeed="max">
        <route edges="E03_13 E13_14 E14_15 E15_16 E16_17"/>
    </vehicle>
    <vehicle id="194" depart="57.82" departSpeed="max">
        <route edges="E45_35 E35_34 E34_33 E33_32 E32_42"/>
    </vehicle>
    <vehicle id="195" depart="58.12" departSpeed="max">
        <route edges="E45_35 E35_34 E34_33 E33_32 E32_31 E31_41"/>
    </vehicle>
    <vehicle id="196" depart="58.42" departSpeed="max">
        <route edges="E06_16 E16_26 E26_27"/>
    </vehicle>
    <vehicle id="197" depart="58.71" departSpeed="max">
        <route edges="E01_11 E11_12 E12_13 E13_14 E14_15 E15_05"/>
    </vehicle>
    <vehicle id="198" depart="59.01" departSpeed="max">
        <route edges="E17_16 E16_15 E15_14 E14_13 E13_23 E23_33 E33_32 E32_31 E31_30"/>
    </vehicle>
    <vehicle id="199" depart="59.31" departSpeed="max">
        <route edges="E37_36 E36_35 E35_34 E34_33 E33_32 E32_31 E31_21 E21_20"/>
    </vehicle>
    <vehicle id="200" depart="59.61" departSpeed="max">
        <route edges="E17_16 E16_15 E15_14 E14_13 E13_03"/>
    </vehicle>
    <vehicle id="201" depart="59.91" departSpeed="max">
        <route edges="E20_21 E21_22 E22_23 E23_24 E24_25 E25_26 E26_36 E36_37"/>
    </vehicle>
    <vehicle id="202" depart="60.21" departSpeed="max">
        <route edges="E43_33 E33_23 E23_13 E13_03"/>
    </vehicle>
    <vehicle id="203" depart="60.50" departSpeed="max">
        <route edges="E02_12 E12_22 E22_23 E23_24 E24_25 E25_26 E26_27"/>
    </vehicle>
    <vehicle id="204" depart="60.80" departSpeed="max">
        <route edges="E37_36 E36_26 E26_16 E16_06"/>
    </vehicle>
    <vehicle id="205" depart="61.10" departSpeed="max">
        <route edges="E43_33 E33_32 E32_22 E22_23 E23_33 E33_43"/>
    </vehicle>
    <vehicle id="206" depart="61.40" departSpeed="max">
        <route edges="E41_31 E31_21 E21_22 E22_23 E23_24 E24_14 E14_04"/>
    </vehicle>
    <vehicle id="207" depart="61.70" departSpeed="max">
        <route edges="E04_14 E14_13 E13_12 E12_11 E11_01"/>
    </vehicle>
    <vehicle id="208" depart="61.99" departSpeed="max">
        <route edges="E05_15 E15_25 E25_24 E24_23 E23_22 E22_21 E21_20"/>
    </vehicle>
    <vehicle id="209" depart="62.29" departSpeed="max">
        <route edges="E44_34 E34_24 E24_14 E14_13 E13_12 E12_11 E11_10"/>
    </vehicle>
    <vehicle id="210" depart="62.59" departSpeed="max">
        <route edges="E17_16 E16_15 E15_14 E14_13 E13_12 E12_11 E11_21 E21_31 E31_41"/>
    </vehicle>
    <vehicle id="211" depart="62.89" departSpeed="max">
        <route edges="E04_14 E14_24 E24_23 E23_22 E22_32 E32_42"/>
    </vehicle>
    <vehicle id="212" depart="63.19" departSpeed="max">
        <route edges="E20_21 E21_22 E22_23 E23_24 E24_14 E14_04"/>
    </vehicle>
    <vehicle id="213" depart="63.48" departSpeed="max">
        <route edges="E37_36 E36_35 E35_34 E34_33 E33_32 E32_31 E31_21 E21_11 E11_01"/>
    </vehicle>
    <vehicle id="214" depart="63.78" departSpeed="max">
        <route edges="E42_32 E32_33 E33_43"/>
    </vehicle>
    <vehicle id="215" depart="64.08" departSpeed="max">
        <route edges="E02_12 E12_13 E13_14 E14_15 E15_16 E16_17"/>