<?xml version="1.0" encoding="UTF-8"?>

<!-- generated on 2025-01-13 01:56:35.346444 by randomTrips.py v1_20_0+0002-343658e7c64
<configuration>
    <net-file value="3x6.net.xml"/>
    <output-trip-file value="trips.trips.xml"/>
    <route-file value="3x6_high.rou.xml"/>
    <trip-attributes value="departSpeed='max'"/>
    <fringe-factor value="max"/>
    <insertion-density value="200.0"/>
</configuration>
-->

<!-- generated on 2025-01-13 01:56:34 by Eclipse SUMO duarouter Version 1.20.0
<configuration xmlns:xsi="http://www.w3.org/2001/XMLSchema-instance" xsi:noNamespaceSchemaLocation="http://sumo.dlr.de/xsd/duarouterConfiguration.xsd">

    <input>
        <net-file value="3x6.net.xml"/>
        <route-files value="trips.trips.xml"/>
    </input>

    <output>
        <output-file value="3x6_high.rou.xml"/>
        <alternatives-output value="NUL"/>
    </output>

    <time>
        <begin value="0"/>
        <end value="3600.0"/>
    </time>

    <report>
        <no-warnings value="true"/>
        <ignore-errors value="true"/>
        <no-step-log value="true"/>
    </report>

</configuration>
-->

<routes xmlns:xsi="http://www.w3.org/2001/XMLSchema-instance" xsi:noNamespaceSchemaLocation="http://sumo.dlr.de/xsd/routes_file.xsd">
    <vehicle id="0" depart="0.00" departSpeed="max">
        <route edges="E37_36 E36_35 E35_34 E34_33 E33_32 E32_31 E31_21 E21_11 E11_01"/>
    </vehicle>
    <vehicle id="1" depart="0.22" departSpeed="max">
        <route edges="E05_15 E15_14 E14_04"/>
    </vehicle>
    <vehicle id="2" depart="0.45" departSpeed="max">
        <route edges="E42_32 E32_31 E31_21 E21_22 E22_32 E32_42"/>
    </vehicle>
    <vehicle id="3" depart="0.67" departSpeed="max">
        <route edges="E45_35 E35_25 E25_15 E15_14 E14_13 E13_12 E12_11 E11_10"/>
    </vehicle>
    <vehicle id="4" depart="0.89" departSpeed="max">
        <route edges="E17_16 E16_15 E15_14 E14_13 E13_12 E12_11 E11_01"/>
    </vehicle>
    <vehicle id="5" depart="1.12" departSpeed="max">
        <route edges="E04_14 E14_24 E24_25 E25_26 E26_27"/>
    </vehicle>
    <vehicle id="6" depart="1.34" departSpeed="max">
        <route edges="E01_11 E11_12 E12_13 E13_03"/>
    </vehicle>
    <vehicle id="7" depart="1.56" departSpeed="max">
        <route edges="E37_36 E36_26 E26_27"/>
    </vehicle>
    <vehicle id="8" depart="1.79" departSpeed="max">
        <route edges="E04_14 E14_24 E24_34 E34_33 E33_32 E32_31 E31_30"/>
    </vehicle>
    <vehicle id="9" depart="2.01" departSpeed="max">
        <route edges="E43_33 E33_32 E32_31 E31_21 E21_11 E11_01"/>
    </vehicle>
    <vehicle id="10" depart="2.24" departSpeed="max">
        <route edges="E43_33 E33_32 E32_42"/>
    </vehicle>
    <vehicle id="11" depart="2.46" departSpeed="max">
        <route edges="E10_11 E11_12 E12_02"/>
    </vehicle>
    <vehicle id="12" depart="2.68" departSpeed="max">
        <route edges="E46_36 E36_26 E26_16 E16_06"/>
    </vehicle>
    <vehicle id="13" depart="2.91" departSpeed="max">
        <route edges="E02_12 E12_11 E11_10"/>
    </vehicle>
    <vehicle id="14" depart="3.13" departSpeed="max">
        <route edges="E44_34 E34_33 E33_32 E32_31 E31_30"/>
    </vehicle>
    <vehicle id="15" depart="3.35" departSpeed="max">
        <route edges="E43_33 E33_32 E32_22 E22_23 E23_33 E33_43"/>
    </vehicle>
    <vehicle id="16" depart="3.58" departSpeed="max">
        <route edges="E27_26 E26_36 E36_46"/>
    </vehicle>
    <vehicle id="17" depart="3.80" departSpeed="max">
        <route edges="E10_11 E11_12 E12_13 E13_14 E14_15 E15_16 E16_26 E26_27"/>
    </vehicle>
    <vehicle id="18" depart="4.02" departSpeed="max">
        <route edges="E43_33 E33_32 E32_31 E31_41"/>
    </vehicle>
    <vehicle id="19" depart="4.25" departSpeed="max">
        <route edges="E44_34 E34_33 E33_32 E32_31 E31_30"/>
    </vehicle>
    <vehicle id="20" depart="4.47" departSpeed="max">
        <route edges="E41_31 E31_21 E21_11 E11_01"/>
    </vehicle>
    <vehicle id="21" depart="4.69" departSpeed="max">
        <route edges="E05_15 E15_16 E16_26 E26_25 E25_15 E15_05"/>
    </vehicle>
    <vehicle id="22" depart="4.92" departSpeed="max">
        <route edges="E02_12 E12_13 E13_14 E14_04"/>
    </vehicle>
    <vehicle id="23" depart="5.14" departSpeed="max">
        <route edges="E02_12 E12_13 E13_14 E14_15 E15_05"/>
    </vehicle>
    <vehicle id="24" depart="5.36" departSpeed="max">
        <route edges="E37_36 E36_26 E26_16 E16_06"/>
    </vehicle>
    <vehicle id="25" depart="5.59" departSpeed="max">
        <route edges="E10_11 E11_12 E12_13 E13_03"/>
    </vehicle>
    <vehicle id="26" depart="5.81" departSpeed="max">
        <route edges="E05_15 E15_25 E25_35 E35_36 E36_37"/>
    </vehicle>
    <vehicle id="27" depart="6.04" departSpeed="max">
        <route edges="E37_36 E36_35 E35_34 E34_33 E33_32 E32_31 E31_30"/>
    </vehicle>
    <vehicle id="28" depart="6.26" departSpeed="max">
        <route edges="E04_14 E14_24 E24_23 E23_33 E33_43"/>
    </vehicle>
    <vehicle id="29" depart="6.48" departSpeed="max">
        <route edges="E03_13 E13_14 E14_15 E15_16 E16_06"/>
    </vehicle>
    <vehicle id="30" depart="6.71" departSpeed="max">
        <route edges="E46_36 E36_35 E35_34 E34_33 E33_32 E32_31 E31_41"/>
    </vehicle>
    <vehicle id="31" depart="6.93" departSpeed="max">
        <route edges="E30_31 E31_32 E32_42"/>
    </vehicle>
    <vehicle id="32" depart="7.15" departSpeed="max">
        <route edges="E44_34 E34_33 E33_43"/>
    </vehicle>
    <vehicle id="33" depart="7.38" departSpeed="max">
        <route edges="E05_15 E15_14 E14_13 E13_12 E12_11 E11_01"/>
    </vehicle>
    <vehicle id="34" depart="7.60" departSpeed="max">
        <route edges="E06_16 E16_15 E15_14 E14_04"/>
    </vehicle>
    <vehicle id="35" depart="7.82" departSpeed="max">
        <route edges="E04_14 E14_24 E24_34 E34_35 E35_36 E36_37"/>
    </vehicle>
    <vehicle id="36" depart="8.05" departSpeed="max">
        <route edges="E44_34 E34_35 E35_25 E25_15 E15_05"/>
    </vehicle>
    <vehicle id="37" depart="8.27" departSpeed="max">
        <route edges="E37_36 E36_26 E26_16 E16_17"/>
    </vehicle>
    <vehicle id="38" depart="8.49" departSpeed="max">
        <route edges="E45_35 E35_25 E25_24 E24_23 E23_22 E22_21 E21_20"/>
    </vehicle>
    <vehicle id="39" depart="8.72" departSpeed="max">
        <route edges="E05_15 E15_14 E14_04"/>
    </vehicle>
    <vehicle id="40" depart="8.94" departSpeed="max">
        <route edges="E30_31 E31_32 E32_33 E33_34 E34_24 E24_14 E14_04"/>
    </vehicle>
    <vehicle id="41" depart="9.16" departSpeed="max">
        <route edges="E30_31 E31_32 E32_33 E33_34 E34_35 E35_36 E36_37"/>
    </vehicle>
    <vehicle id="42" depart="9.39" departSpeed="max">
        <route edges="E17_16 E16_15 E15_14 E14_13 E13_03"/>
    </vehicle>
    <vehicle id="43" depart="9.61" departSpeed="max">
        <route edges="E46_36 E36_26 E26_27"/>
    </vehicle>
    <vehicle id="44" depart="9.84" departSpeed="max">
        <route edges="E02_12 E12_11 E11_01"/>
    </vehicle>
    <vehicle id="45" depart="10.06" departSpeed="max">
        <route edges="E02_12 E12_11 E11_21 E21_31 E31_41"/>
    </vehicle>
    <vehicle id="46" depart="10.28" departSpeed="max">
        <route edges="E43_33 E33_23 E23_13 E13_14 E14_15 E15_16 E16_17"/>
    </vehicle>
    <vehicle id="47" depart="10.51" departSpeed="max">
        <route edges="E02_12 E12_13 E13_14 E14_15 E15_16 E16_06"/>
    </vehicle>
    <vehicle id="48" depart="10.73" departSpeed="max">
        <route edges="E46_36 E36_26 E26_27"/>
    </vehicle>
    <vehicle id="49" depart="10.95" departSpeed="max">
        <route edges="E46_36 E36_35 E35_45"/>
    </vehicle>
    <vehicle id="50" depart="11.18" departSpeed="max">
        <route edges="E01_11 E11_12 E12_22 E22_32 E32_42"/>
    </vehicle>
    <vehicle id="51" depart="11.40" departSpeed="max">
        <route edges="E41_31 E31_21 E21_22 E22_23 E23_24 E24_25 E25_26 E26_27"/>
    </vehicle>
    <vehicle id="52" depart="11.62" departSpeed="max">
        <route edges="E05_15 E15_25 E25_35 E35_34 E34_33 E33_32 E32_31 E31_41"/>
    </vehicle>
    <vehicle id="53" depart="11.85" departSpeed="max">
        <route edges="E03_13 E13_14 E14_15 E15_16 E16_17"/>
    </vehicle>
    <vehicle id="54" depart="12.07" departSpeed="max">
        <route edges="E20_21 E21_22 E22_23 E23_24 E24_25 E25_26 E26_36 E36_46"/>
    </vehicle>
    <vehicle id="55" depart="12.29" departSpeed="max">
        <route edges="E44_34 E34_24 E24_14 E14_04"/>
    </vehicle>
    <vehicle id="56" depart="12.52" departSpeed="max">
        <route edges="E27_26 E26_25 E25_24 E24_23 E23_13 E13_03"/>
    </vehicle>
    <vehicle id="57" depart="12.74" departSpeed="max">
        <route edges="E45_35 E35_34 E34_24 E24_25 E25_35 E35_45"/>
    </vehicle>
    <vehicle id="58" depart="12.96" departSpeed="max">
        <route edges="E06_16 E16_26 E26_25 E25_24 E24_23 E23_22 E22_21 E21_31 E31_41"/>
    </vehicle>
    <vehicle id="59" depart="13.19" departSpeed="max">
        <route edges="E30_31 E31_32 E32_22 E22_12 E12_02"/>
    </vehicle>
    <vehicle id="60" depart="13.41" departSpeed="max">
        <route edges="E42_32 E32_22 E22_23 E23_24 E24_25 E25_26 E26_27"/>
    </vehicle>
    <vehicle id="61" depart="13.64" departSpeed="max">
        <route edges="E43_33 E33_23 E23_24 E24_25 E25_26 E26_27"/>
    </vehicle>
    <vehicle id="62" depart="13.86" departSpeed="max">
        <route edges="E01_11 E11_12 E12_13 E13_14 E14_15 E15_05"/>
    </vehicle>
    <vehicle id="63" depart="14.08" departSpeed="max">
        <route edges="E01_11 E11_21 E21_31 E31_32 E32_33 E33_34 E34_35 E35_36 E36_37"/>
    </vehicle>
    <vehicle id="64" depart="14.31" departSpeed="max">
        <route edges="E44_34 E34_24 E24_25 E25_35 E35_34 E34_44"/>
    </vehicle>
    <vehicle id="65" depart="14.53" departSpeed="max">
        <route edges="E06_16 E16_15 E15_14 E14_13 E13_12 E12_11 E11_10"/>
    </vehicle>
    <vehicle id="66" depart="14.75" departSpeed="max">
        <route edges="E44_34 E34_35 E35_36 E36_46"/>
    </vehicle>
    <vehicle id="67" depart="14.98" departSpeed="max">
        <route edges="E02_12 E12_22 E22_21 E21_20"/>
    </vehicle>
    <vehicle id="68" depart="15.20" departSpeed="max">
        <route edges="E02_12 E12_13 E13_23 E23_33 E33_43"/>
    </vehicle>
    <vehicle id="69" depart="15.42" departSpeed="max">
        <route edges="E42_32 E32_22 E22_12 E12_02"/>
    </vehicle>
    <vehicle id="70" depart="15.65" departSpeed="max">
        <route edges="E20_21 E21_22 E22_23 E23_24 E24_25 E25_26 E26_27"/>
    </vehicle>
    <vehicle id="71" depart="15.87" departSpeed="max">
        <route edges="E05_15 E15_25 E25_35 E35_45"/>
    </vehicle>
    <vehicle id="72" depart="16.09" departSpeed="max">
        <route edges="E17_16 E16_15 E15_14 E14_13 E13_03"/>
    </vehicle>
    <vehicle id="73" depart="16.32" departSpeed="max">
        <route edges="E27_26 E26_25 E25_24 E24_23 E23_33 E33_43"/>
    </vehicle>
    <vehicle id="74" depart="16.54" departSpeed="max">
        <route edges="E04_14 E14_15 E15_05"/>
    </vehicle>
    <vehicle id="75" depart="16.77" departSpeed="max">
        <route edges="E46_36 E36_35 E35_34 E34_33 E33_32 E32_31 E31_41"/>
    </vehicle>
    <vehicle id="76" depart="16.99" departSpeed="max">
        <route edges="E17_16 E16_26 E26_27"/>
    </vehicle>
    <vehicle id="77" depart="17.21" departSpeed="max">
        <route edges="E03_13 E13_14 E14_04"/>
    </vehicle>
    <vehicle id="78" depart="17.44" departSpeed="max">
        <route edges="E10_11 E11_21 E21_31 E31_30"/>
    </vehicle>
    <vehicle id="79" depart="17.66" departSpeed="max">
        <route edges="E05_15 E15_14 E14_13 E13_03"/>
    </vehicle>
    <vehicle id="80" depart="17.88" departSpeed="max">
        <route edges="E02_12 E12_11 E11_21 E21_31 E31_41"/>
    </vehicle>
    <vehicle id="81" depart="18.11" departSpeed="max">
        <route edges="E05_15 E15_25 E25_35 E35_36 E36_37"/>
    </vehicle>
    <vehicle id="82" depart="18.33" departSpeed="max">
        <route edges="E44_34 E34_24 E24_14 E14_13 E13_12 E12_11 E11_10"/>
    </vehicle>
    <vehicle id="83" depart="18.55" departSpeed="max">
        <route edges="E05_15 E15_14 E14_13 E13_12 E12_22 E22_32 E32_42"/>
    </vehicle>
    <vehicle id="84" depart="18.78" departSpeed="max">
        <route edges="E04_14 E14_13 E13_12 E12_02"/>
    </vehicle>
    <vehicle id="85" depart="19.00" departSpeed="max">
        <route edges="E45_35 E35_34 E34_33 E33_32 E32_31 E31_30"/>
    </vehicle>
    <vehicle id="86" depart="19.22" departSpeed="max">
        <route edges="E20_21 E21_22 E22_23 E23_24 E24_34 E34_44"/>
    </vehicle>
    <vehicle id="87" depart="19.45" departSpeed="max">
        <route edges="E43_33 E33_23 E23_13 E13_03"/>
    </vehicle>
    <vehicle id="88" depart="19.67" departSpeed="max">
        <route edges="E02_12 E12_13 E13_14 E14_15 E15_16 E16_17"/>
    </vehicle>
    <vehicle id="89" depart="19.89" departSpeed="max">
        <route edges="E17_16 E16_26 E26_25 E25_24 E24_23 E23_22 E22_21 E21_20"/>
    </vehicle>
    <vehicle id="90" depart="20.12" departSpeed="max">
        <route edges="E42_32 E32_31 E31_21 E21_22 E22_32 E32_42"/>
    </vehicle>
    <vehicle id="91" depart="20.34" departSpeed="max">
        <route edges="E46_36 E36_26 E26_16 E16_15 E15_14 E14_13 E13_12 E12_11 E11_10"/>
    </vehicle>
    <vehicle id="92" depart="20.57" departSpeed="max">
        <route edges="E17_16 E16_06"/>
    </vehicle>
    <vehicle id="93" depart="20.79" departSpeed="max">
        <route edges="E44_34 E34_24 E24_14 E14_04"/>
    </vehicle>
    <vehicle id="94" depart="21.01" departSpeed="max">
        <route edges="E04_14 E14_24 E24_23 E23_22 E22_21 E21_20"/>
    </vehicle>
    <vehicle id="95" depart="21.24" departSpeed="max">
        <route edges="E17_16 E16_15 E15_05"/>
    </vehicle>
    <vehicle id="96" depart="21.46" departSpeed="max">
        <route edges="E05_15 E15_25 E25_35 E35_36 E36_37"/>
    </vehicle>
    <vehicle id="97" depart="21.68" departSpeed="max">
        <route edges="E17_16 E16_15 E15_25 E25_35 E35_45"/>
    </vehicle>
    <vehicle id="98" depart="21.91" departSpeed="max">
        <route edges="E27_26 E26_25 E25_24 E24_23 E23_22 E22_21 E21_11 E11_01"/>
    </vehicle>
    <vehicle id="99" depart="22.13" departSpeed="max">
        <route edges="E46_36 E36_35 E35_45"/>
    </vehicle>
    <vehicle id="100" depart="22.35" departSpeed="max">
        <route edges="E46_36 E36_37"/>
    </vehicle>
    <vehicle id="101" depart="22.58" departSpeed="max">
        <route edges="E44_34 E34_33 E33_32 E32_22 E22_12 E12_02"/>
    </vehicle>
    <vehicle id="102" depart="22.80" departSpeed="max">
        <route edges="E20_21 E21_22 E22_23 E23_13 E13_03"/>
    </vehicle>
    <vehicle id="103" depart="23.02" departSpeed="max">
        <route edges="E17_16 E16_15 E15_14 E14_13 E13_12 E12_11 E11_10"/>
    </vehicle>
    <vehicle id="104" depart="23.25" departSpeed="max">
        <route edges="E10_11 E11_12 E12_13 E13_14 E14_15 E15_16 E16_26 E26_36 E36_46"/>
    </vehicle>
    <vehicle id="105" depart="23.47" departSpeed="max">
        <route edges="E05_15 E15_14 E14_24 E24_34 E34_44"/>
    </vehicle>
    <vehicle id="106" depart="23.69" departSpeed="max">
        <route edges="E20_21 E21_11 E11_12 E12_13 E13_14 E14_15 E15_16 E16_17"/>
    </vehicle>
    <vehicle id="107" depart="23.92" departSpeed="max">
        <route edges="E46_36 E36_35 E35_25 E25_26 E26_36 E36_46"/>
    </vehicle>
    <vehicle id="108" depart="24.14" departSpeed="max">
        <route edges="E30_31 E31_32 E32_42"/>
    </vehicle>
    <vehicle id="109" depart="24.37" departSpeed="max">
        <route edges="E03_13 E13_14 E14_15 E15_05"/>
    </vehicle>
    <vehicle id="110" depart="24.59" departSpeed="max">
        <route edges="E46_36 E36_35 E35_34 E34_33 E33_32 E32_31 E31_30"/>
    </vehicle>
    <vehicle id="111" depart="24.81" departSpeed="max">
        <route edges="E27_26 E26_25 E25_24 E24_23 E23_33 E33_43"/>
    </vehicle>
    <vehicle id="112" depart="25.04" departSpeed="max">
        <route edges="E02_12 E12_22 E22_32 E32_31 E31_30"/>
    </vehicle>
    <vehicle id="113" depart="25.26" departSpeed="max">
        <route edges="E27_26 E26_25 E25_35 E35_45"/>
    </vehicle>
    <vehicle id="114" depart="25.48" departSpeed="max">
        <route edges="E03_13 E13_14 E14_15 E15_16 E16_26 E26_36 E36_46"/>
    </vehicle>
    <vehicle id="115" depart="25.71" departSpeed="max">
        <route edges="E02_12 E12_13 E13_03"/>
    </vehicle>
    <vehicle id="116" depart="25.93" departSpeed="max">
        <route edges="E30_31 E31_32 E32_42"/>
    </vehicle>
    <vehicle id="117" depart="26.15" departSpeed="max">
        <route edges="E05_15 E15_14 E14_13 E13_12 E12_02"/>
    </vehicle>
    <vehicle id="118" depart="26.38" departSpeed="max">
        <route edges="E45_35 E35_34 E34_24 E24_14 E14_04"/>
    </vehicle>
    <vehicle id="119" depart="26.60" departSpeed="max">
        <route edges="E30_31 E31_41"/>
    </vehicle>
    <vehicle id="120" depart="26.82" departSpeed="max">
        <route edges="E17_16 E16_15 E15_14 E14_13 E13_23 E23_33 E33_32 E32_31 E31_30"/>
    </vehicle>
    <vehicle id="121" depart="27.05" departSpeed="max">
        <route edges="E27_26 E26_36 E36_37"/>
    </vehicle>
    <vehicle id="122" depart="27.27" departSpeed="max">
        <route edges="E04_14 E14_24 E24_23 E23_22 E22_32 E32_42"/>
    </vehicle>
    <vehicle id="123" depart="27.49" departSpeed="max">
        <route edges="E05_15 E15_16 E16_17"/>
    </vehicle>
    <vehicle id="124" depart="27.72" departSpeed="max">
        <route edges="E41_31 E31_21 E21_22 E22_23 E23_24 E24_25 E25_15 E15_05"/>
    </vehicle>
    <vehicle id="125" depart="27.94" departSpeed="max">
        <route edges="E06_16 E16_26 E26_25 E25_24 E24_23 E23_33 E33_43"/>
    </vehicle>
    <vehicle id="126" depart="28.17" departSpeed="max">
        <route edges="E02_12 E12_22 E22_21 E21_20"/>
    </vehicle>
    <vehicle id="127" depart="28.39" departSpeed="max">
        <route edges="E46_36 E36_35 E35_25 E25_26 E26_36 E36_46"/>
    </vehicle>
    <vehicle id="128" depart="28.61" departSpeed="max">
        <route edges="E02_12 E12_13 E13_03"/>
    </vehicle>
    <vehicle id="129" depart="28.84" departSpeed="max">
        <route edges="E05_15 E15_25 E25_35 E35_36 E36_37"/>
    </vehicle>
    <vehicle id="130" depart="29.06" departSpeed="max">
        <route edges="E44_34 E34_35 E35_45"/>
    </vehicle>
    <vehicle id="131" depart="29.28" departSpeed="max">
        <route edges="E10_11 E11_12 E12_02"/>
    </vehicle>
    <vehicle id="132" depart="29.51" departSpeed="max">
        <route edges="E44_34 E34_33 E33_32 E32_42"/>
    </vehicle>
    <vehicle id="133" depart="29.73" departSpeed="max">
        <route edges="E37_36 E36_46"/>
    </vehicle>
    <vehicle id="134" depart="29.95" departSpeed="max">
        <route edges="E37_36 E36_35 E35_34 E34_33 E33_32 E32_31 E31_21 E21_11 E11_01"/>
    </vehicle>
    <vehicle id="135" depart="30.18" departSpeed="max">
        <route edges="E43_33 E33_23 E23_24 E24_25 E25_15 E15_05"/>
    </vehicle>
    <vehicle id="136" depart="30.40" departSpeed="max">
        <route edges="E37_36 E36_35 E35_25 E25_26 E26_36 E36_37"/>
    </vehicle>
    <vehicle id="137" depart="30.62" departSpeed="max">
        <route edges="E03_13 E13_12 E12_02"/>
    </vehicle>
    <vehicle id="138" depart="30.85" departSpeed="max">
        <route edges="E02_12 E12_22 E22_23 E23_24 E24_25 E25_26 E26_27"/>
    </vehicle>
    <vehicle id="139" depart="31.07" departSpeed="max">
        <route edges="E05_15 E15_25 E25_35 E35_34 E34_33 E33_32 E32_31 E31_30"/>
    </vehicle>
    <vehicle id="140" depart="31.29" departSpeed="max">
        <route edges="E41_31 E31_21 E21_11 E11_12 E12_13 E13_03"/>
    </vehicle>
    <vehicle id="141" depart="31.52" departSpeed="max">
        <route edges="E37_36 E36_35 E35_34 E34_24 E24_14 E14_04"/>
    </vehicle>
    <vehicle id="142" depart="31.74" departSpeed="max">
        <route edges="E20_21 E21_22 E22_23 E23_24 E24_25 E25_26 E26_36 E36_37"/>
    </vehicle>
    <vehicle id="143" depart="31.97" departSpeed="max">
        <route edges="E44_34 E34_24 E24_14 E14_13 E13_12 E12_11 E11_10"/>
    </vehicle>
    <vehicle id="144" depart="32.19" departSpeed="max">
        <route edges="E17_16 E16_15 E15_14 E14_04"/>
    </vehicle>
    <vehicle id="145" depart="32.41" departSpeed="max">
        <route edges="E01_11 E11_12 E12_13 E13_23 E23_33 E33_43"/>
    </vehicle>
    <vehicle id="146" depart="32.64" departSpeed="max">
        <route edges="E37_36 E36_35 E35_34 E34_24 E24_14 E14_04"/>
    </vehicle>
    <vehicle id="147" depart="32.86" departSpeed="max">
        <route edges="E42_32 E32_22 E22_23 E23_24 E24_25 E25_26 E26_27"/>
    </vehicle>
    <vehicle id="148" depart="33.08" departSpeed="max">
        <route edges="E17_16 E16_15 E15_14 E14_13 E13_12 E12_11 E11_01"/>
    </vehicle>
    <vehicle id="149" depart="33.31" departSpeed="max">
        <route edges="E02_12 E12_22 E22_23 E23_24 E24_25 E25_35 E35_45"/>
    </vehicle>
    <vehicle id="150" depart="33.53" departSpeed="max">
        <route edges="E45_35 E35_25 E25_26 E26_27"/>
    </vehicle>
    <vehicle id="151" depart="33.75" departSpeed="max">
        <route edges="E44_34 E34_33 E33_32 E32_31 E31_30"/>
    </vehicle>
    <vehicle id="152" depart="33.98" departSpeed="max">
        <route edges="E03_13 E13_12 E12_02"/>
    </vehicle>
    <vehicle id="153" depart="34.20" departSpeed="max">
        <route edges="E06_16 E16_26 E26_36 E36_37"/>
    </vehicle>
    <vehicle id="154" depart="34.42" departSpeed="max">
        <route edges="E43_33 E33_34 E34_35 E35_45"/>
    </vehicle>
    <vehicle id="155" depart="34.65" departSpeed="max">
        <route edges="E45_35 E35_25 E25_15 E15_14 E14_13 E13_03"/>
    </vehicle>
    <vehicle id="156" depart="34.87" departSpeed="max">
        <route edges="E05_15 E15_14 E14_13 E13_12 E12_11 E11_10"/>
    </vehicle>
    <vehicle id="157" depart="35.09" departSpeed="max">
        <route edges="E43_33 E33_34 E34_35 E35_45"/>
    </vehicle>
    <vehicle id="158" depart="35.32" departSpeed="max">
        <route edges="E17_16 E16_15 E15_14 E14_13 E13_12 E12_11 E11_21 E21_31 E31_41"/>
    </vehicle>
    <vehicle id="159" depart="35.54" departSpeed="max">
        <route edges="E03_13 E13_23 E23_33 E33_34 E34_35 E35_36 E36_37"/>
    </vehicle>
    <vehicle id="160" depart="35.77" departSpeed="max">
        <route edges="E44_34 E34_35 E35_36 E36_46"/>
    </vehicle>
    <vehicle id="161" depart="35.99" departSpeed="max">
        <route edges="E43_33 E33_34 E34_35 E35_45"/>
    </vehicle>
    <vehicle id="162" depart="36.21" departSpeed="max">
        <route edges="E01_11 E11_12 E12_13 E13_23 E23_33 E33_43"/>
    </vehicle>
    <vehicle id="163" depart="36.44" departSpeed="max">
        <route edges="E06_16 E16_26 E26_36 E36_37"/>
    </vehicle>
    <vehicle id="164" depart="36.66" departSpeed="max">
        <route edges="E43_33 E33_34 E34_35 E35_45"/>
    </vehicle>
    <vehicle id="165" depart="36.88" departSpeed="max">
        <route edges="E43_33 E33_23 E23_24 E24_14 E14_04"/>
    </vehicle>
    <vehicle id="166" depart="37.11" departSpeed="max">
        <route edges="E43_33 E33_23 E23_13 E13_12 E12_11 E11_10"/>
    </vehicle>
    <vehicle id="167" depart="37.33" departSpeed="max">
        <route edges="E44_34 E34_35 E35_45"/>
    </vehicle>
    <vehicle id="168" depart="37.55" departSpeed="max">
        <route edges="E05_15 E15_14 E14_24 E24_34 E34_44"/>
    </vehicle>
    <vehicle id="169" depart="37.78" departSpeed="max">
        <route edges="E20_21 E21_22 E22_23 E23_24 E24_25 E25_15 E15_05"/>
    </vehicle>
    <vehicle id="170" depart="38.00" departSpeed="max">
        <route edges="E43_33 E33_23 E23_24 E24_14 E14_04"/>
    </vehicle>
    <vehicle id="171" depart="38.22" departSpeed="max">
        <route edges="E01_11 E11_12 E12_13 E13_03"/>
    </vehicle>
    <vehicle id="172" depart="38.45" departSpeed="max">
        <route edges="E06_16 E16_15 E15_25 E25_35 E35_45"/>
    </vehicle>
    <vehicle id="173" depart="38.67" departSpeed="max">
        <route edges="E46_36 E36_35 E35_25 E25_15 E15_05"/>
    </vehicle>
    <vehicle id="174" depart="38.89" departSpeed="max">
        <route edges="E37_36 E36_26 E26_16 E16_17"/>
    </vehicle>
    <vehicle id="175" depart="39.12" departSpeed="max">
        <route edges="E46_36 E36_26 E26_27"/>
    </vehicle>
    <vehicle id="176" depart="39.34" departSpeed="max">
        <route edges="E45_35 E35_25 E25_24 E24_23 E23_22 E22_12 E12_02"/>
    </vehicle>
    <vehicle id="177" depart="39.57" departSpeed="max">
        <route edges="E46_36 E36_26 E26_25 E25_24 E24_23 E23_13 E13_03"/>
    </vehicle>
    <vehicle id="178" depart="39.79" departSpeed="max">
        <route edges="E46_36 E36_35 E35_34 E34_24 E24_14 E14_04"/>
    </vehicle>
    <vehicle id="179" depart="40.01" departSpeed="max">
        <route edges="E02_12 E12_13 E13_14 E14_15 E15_16 E16_17"/>
    </vehicle>
    <vehicle id="180" depart="40.24" departSpeed="max">
        <route edges="E42_32 E32_33 E33_34 E34_35 E35_25 E25_15 E15_05"/>
    </vehicle>
    <vehicle id="181" depart="40.46" departSpeed="max">
        <route edges="E30_31 E31_21 E21_22 E22_23 E23_24 E24_25 E25_26 E26_27"/>
    </vehicle>
    <vehicle id="182" depart="40.68" departSpeed="max">
        <route edges="E10_11 E11_21 E21_31 E31_30"/>
    </vehicle>
    <vehicle id="183" depart="40.91" departSpeed="max">
        <route edges="E05_15 E15_14 E14_13 E13_12 E12_22 E22_32 E32_42"/>
    </vehicle>
    <vehicle id="184" depart="41.13" departSpeed="max">
        <route edges="E01_11 E11_21 E21_31 E31_32 E32_33 E33_34 E34_35 E35_36 E36_37"/>
    </vehicle>
    <vehicle id="185" depart="41.35" departSpeed="max">
        <route edges="E27_26 E26_25 E25_24 E24_23 E23_22 E22_32 E32_42"/>
    </vehicle>
    <vehicle id="186" depart="41.58" departSpeed="max">
        <route edges="E42_32 E32_31 E31_21 E21_22 E22_32 E32_42"/>
    </vehicle>
    <vehicle id="187" depart="41.80" departSpeed="max">
        <route edges="E10_11 E11_12 E12_22 E22_21 E21_11 E11_10"/>
    </vehicle>
    <vehicle id="188" depart="42.02" departSpeed="max">
        <route edges="E37_36 E36_35 E35_25 E25_15 E15_05"/>
    </vehicle>
    <vehicle id="189" depart="42.25" departSpeed="max">
        <route edges="E06_16 E16_15 E15_25 E25_35 E35_45"/>
    </vehicle>
    <vehicle id="190" depart="42.47" departSpeed="max">
        <route edges="E41_31 E31_21 E21_22 E22_23 E23_24 E24_25 E25_15 E15_05"/>
    </vehicle>
    <vehicle id="191" depart="42.69" departSpeed="max">
        <route edges="E06_16 E16_17"/>
    </vehicle>
    <vehicle id="192" depart="42.92" departSpeed="max">
        <route edges="E17_16 E16_15 E15_05"/>
    </vehicle>
    <vehicle id="193" depart="43.14" departSpeed="max">
        <route edges="E03_13 E13_14 E14_15 E15_16 E16_17"/>
    </vehicle>
    <vehicle id="194" depart="43.37" departSpeed="max">
        <route edges="E45_35 E35_34 E34_33 E33_32 E32_42"/>
    </vehicle>
    <vehicle id="195" depart="43.59" departSpeed="max">
        <route edges="E45_35 E35_34 E34_33 E33_32 E32_31 E31_41"/>
    </vehicle>
    <vehicle id="196" depart="43.81" departSpeed="max">
        <route edges="E06_16 E16_26 E26_27"/>
    </vehicle>
    <vehicle id="197" depart="44.04" departSpeed="max">
        <route edges="E01_11 E11_12 E12_13 E13_14 E14_15 E15_05"/>
    </vehicle>
    <vehicle id="198" depart="44.26" departSpeed="max">
        <route edges="E17_16 E16_15 E15_14 E14_13 E13_23 E23_33 E33_32 E32_31 E31_30"/>
    </vehicle>
    <vehicle id="199" depart="44.48" departSpeed="max">
        <route edges="E37_36 E36_35 E35_34 E34_33 E33_32 E32_31 E31_21 E21_20"/>
    </vehicle>
    <vehicle id="200" depart="44.71" departSpeed="max">
        <route edges="E17_16 E16_15 E15_14 E14_13 E13_03"/>
    </vehicle>
    <vehicle id="201" depart="44.93" departSpeed="max">
        <route edges="E20_21 E21_22 E22_23 E23_24 E24_25 E25_26 E26_36 E36_37"/>
    </vehicle>
    <vehicle id="202" depart="45.15" departSpeed="max">
        <route edges="E43_33 E33_23 E23_13 E13_03"/>
    </vehicle>
    <vehicle id="203" depart="45.38" departSpeed="max">
        <route edges="E02_12 E12_22 E22_23 E23_24 E24_25 E25_26 E26_27"/>
    </vehicle>
    <vehicle id="204" depart="45.60" departSpeed="max">
        <route edges="E37_36 E36_26 E26_16 E16_06"/>
    </vehicle>
    <vehicle id="205" depart="45.82" departSpeed="max">
        <route edges="E43_33 E33_32 E32_22 E22_23 E23_33 E33_43"/>
    </vehicle>
    <vehicle id="206" depart="46.05" departSpeed="max">
        <route edges="E41_31 E31_21 E21_22 E22_23 E23_24 E24_14 E14_04"/>
    </vehicle>
    <vehicle id="207" depart="46.27" departSpeed="max">
        <route edges="E04_14 E14_13 E13_12 E12_11 E11_01"/>
    </vehicle>
    <vehicle id="208" depart="46.49" departSpeed="max">
        <route edges="E05_15 E15_25 E25_24 E24_23 E23_22 E22_21 E21_20"/>
    </vehicle>
    <vehicle id="209" depart="46.72" departSpeed="max">
        <route edges="E44_34 E34_24 E24_14 E14_13 E13_12 E12_11 E11_10"/>
    </vehicle>
    <vehicle id="210" depart="46.94" departSpeed="max">
        <route edges="E17_16 E16_15 E15_14 E14_13 E13_12 E12_11 E11_21 E21_31 E31_41"/>
    </vehicle>
    <vehicle id="211" depart="47.17" departSpeed="max">
        <route edges="E04_14 E14_24 E24_23 E23_22 E22_32 E32_42"/>
    </vehicle>
    <vehicle id="212" depart="47.39" departSpeed="max">
        <route edges="E20_21 E21_22 E22_23 E23_24 E24_14 E14_04"/>
    </vehicle>
    <vehicle id="213" depart="47.61" departSpeed="max">
        <route edges="E37_36 E36_35 E35_34 E34_33 E33_32 E32_31 E31_21 E21_11 E11_01"/>
    </vehicle>
    <vehicle id="214" depart="47.84" departSpeed="max">
        <route edges="E42_32 E32_33 E33_43"/>
    </vehicle>
    <vehicle id="215" depart="48.06" departSpeed="max">
        <route edges="E02_12 E12_13 E13_14 E14_15 E15_16 E16_17"/>
    </vehicle>