<configuration>
    <input>
        <net-file value="cologne3.net.xml"/>
        <route-files value="cologne3_medium.rou.xml"/>
    </input>
    <processing>
        <lateral-resolution value="1" />
        <waiting-time-memory value="3600" />
    </processing>
</configuration>