<?xml version="1.0" encoding="UTF-8"?>

<!-- generated on 2025-01-06 23:16:02.698163 by randomTrips.py v1_20_0+0002-343658e7c64
<configuration>
    <net-file value="5int.net.xml"/>
    <output-trip-file value="trips.trips.xml"/>
    <route-file value="5int_low.rou.xml"/>
    <trip-attributes value="departSpeed='max'"/>
    <fringe-factor value="max"/>
    <insertion-density value="100.0"/>
</configuration>
-->

<!-- generated on 2025-01-06 23:16:02 by Eclipse SUMO duarouter Version 1.20.0
<configuration xmlns:xsi="http://www.w3.org/2001/XMLSchema-instance" xsi:noNamespaceSchemaLocation="http://sumo.dlr.de/xsd/duarouterConfiguration.xsd">

    <input>
        <net-file value="5int.net.xml"/>
        <route-files value="trips.trips.xml"/>
    </input>

    <output>
        <output-file value="5int_low.rou.xml"/>
        <alternatives-output value="NUL"/>
    </output>

    <time>
        <begin value="0"/>
        <end value="3600"/>
    </time>

    <report>
        <no-warnings value="true"/>
        <ignore-errors value="true"/>
        <no-step-log value="true"/>
    </report>

</configuration>
-->

<routes xmlns:xsi="http://www.w3.org/2001/XMLSchema-instance" xsi:noNamespaceSchemaLocation="http://sumo.dlr.de/xsd/routes_file.xsd">
    <vehicle id="0" depart="0.00" departSpeed="max">
        <route edges="E5 E1 -E2 -E10"/>
    </vehicle>
    <vehicle id="1" depart="1.53" departSpeed="max">
        <route edges="E13 -E12"/>
    </vehicle>
    <vehicle id="3" depart="4.58" departSpeed="max">
        <route edges="E8 E2 -E3 -E11"/>
    </vehicle>
    <vehicle id="4" depart="6.11" departSpeed="max">
        <route edges="E15 E4 -E2 -E10"/>
    </vehicle>
    <vehicle id="5" depart="7.64" departSpeed="max">
        <route edges="E12 E3 -E4 -E16"/>
    </vehicle>
    <vehicle id="6" depart="9.16" departSpeed="max">
        <route edges="E10 E2 -E3 -E12"/>
    </vehicle>
    <vehicle id="7" depart="10.69" departSpeed="max">
        <route edges="E5 E1 -E4 -E16"/>
    </vehicle>
    <vehicle id="8" depart="12.22" departSpeed="max">
        <route edges="E12 E3 -E1 -E5"/>
    </vehicle>
    <vehicle id="9" depart="13.75" departSpeed="max">
        <route edges="E7 E1 -E2 -E10"/>
    </vehicle>
    <vehicle id="10" depart="15.27" departSpeed="max">
        <route edges="E7 -E6"/>
    </vehicle>
    <vehicle id="11" depart="16.80" departSpeed="max">
        <route edges="E14 E4 -E3 -E11"/>
    </vehicle>
    <vehicle id="12" depart="18.33" departSpeed="max">
        <route edges="E9 E2 -E4 -E14"/>
    </vehicle>
    <vehicle id="14" depart="21.38" departSpeed="max">
        <route edges="E8 E2 -E1 -E5"/>
    </vehicle>
    <vehicle id="15" depart="22.91" departSpeed="max">
        <route edges="E7 -E6"/>
    </vehicle>
    <vehicle id="16" depart="24.44" departSpeed="max">
        <route edges="E16 E4 -E2 -E9"/>
    </vehicle>
    <vehicle id="17" depart="25.97" departSpeed="max">
        <route edges="E14 -E16"/>
    </vehicle>
    <vehicle id="18" depart="27.49" departSpeed="max">
        <route edges="E7 -E5"/>
    </vehicle>
    <vehicle id="19" depart="29.02" departSpeed="max">
        <route edges="E8 E2 -E4 -E16"/>
    </vehicle>
    <vehicle id="20" depart="30.55" departSpeed="max">
        <route edges="E6 E1 -E2 -E10"/>
    </vehicle>
    <vehicle id="21" depart="32.08" departSpeed="max">
        <route edges="E12 -E13"/>
    </vehicle>
    <vehicle id="22" depart="33.60" departSpeed="max">
        <route edges="E10 E2 -E3 -E12"/>
    </vehicle>
    <vehicle id="23" depart="35.13" departSpeed="max">
        <route edges="E11 -E13"/>
    </vehicle>
    <vehicle id="24" depart="36.66" departSpeed="max">
        <route edges="E5 E1 -E4 -E14"/>
    </vehicle>
    <vehicle id="25" depart="38.19" departSpeed="max">
        <route edges="E14 E4 -E3 -E12"/>
    </vehicle>
    <vehicle id="26" depart="39.71" departSpeed="max">
        <route edges="E13 E3 -E2 -E9"/>
    </vehicle>
    <vehicle id="28" depart="42.77" departSpeed="max">
        <route edges="E12 E3 -E1 -E6"/>
    </vehicle>
    <vehicle id="29" depart="44.30" departSpeed="max">
        <route edges="E11 E3 -E4 -E14"/>
    </vehicle>
    <vehicle id="30" depart="45.82" departSpeed="max">
        <route edges="E9 E2 -E1 -E5"/>
    </vehicle>
    <vehicle id="31" depart="47.35" departSpeed="max">
        <route edges="E16 E4 -E1 -E6"/>
    </vehicle>
    <vehicle id="32" depart="48.88" departSpeed="max">
        <route edges="E8 E2 -E1 -E7"/>
    </vehicle>
    <vehicle id="33" depart="50.41" departSpeed="max">
        <route edges="E12 E3 -E2 -E10"/>
    </vehicle>
    <vehicle id="35" depart="53.46" departSpeed="max">
        <route edges="E12 E3 -E2 -E9"/>
    </vehicle>
    <vehicle id="36" depart="54.99" departSpeed="max">
        <route edges="E8 E2 -E3 -E13"/>
    </vehicle>
    <vehicle id="37" depart="56.52" departSpeed="max">
        <route edges="E5 E1 -E4 -E14"/>
    </vehicle>
    <vehicle id="38" depart="58.04" departSpeed="max">
        <route edges="E8 E2 -E4 -E15"/>
    </vehicle>
    <vehicle id="39" depart="59.57" departSpeed="max">
        <route edges="E13 -E12"/>
    </vehicle>
    <vehicle id="40" depart="61.10" departSpeed="max">
        <route edges="E16 E4 -E3 -E13"/>
    </vehicle>
    <vehicle id="41" depart="62.63" departSpeed="max">
        <route edges="E5 E1 -E2 -E8"/>
    </vehicle>
    <vehicle id="42" depart="64.15" departSpeed="max">
        <route edges="E14 E4 -E3 -E12"/>
    </vehicle>
    <vehicle id="43" depart="65.68" departSpeed="max">
        <route edges="E9 E2 -E4 -E16"/>
    </vehicle>
    <vehicle id="44" depart="67.21" departSpeed="max">
        <route edges="E11 E3 -E2 -E10"/>
    </vehicle>
    <vehicle id="45" depart="68.74" departSpeed="max">
        <route edges="E11 E3 -E1 -E5"/>
    </vehicle>
    <vehicle id="46" depart="70.26" departSpeed="max">
        <route edges="E7 E1 -E4 -E15"/>
    </vehicle>
    <vehicle id="47" depart="71.79" departSpeed="max">
        <route edges="E10 E2 -E4 -E14"/>
    </vehicle>
    <vehicle id="48" depart="73.32" departSpeed="max">
        <route edges="E9 E2 -E4 -E16"/>
    </vehicle>
    <vehicle id="49" depart="74.85" departSpeed="max">
        <route edges="E9 -E8"/>
    </vehicle>
    <vehicle id="50" depart="76.37" departSpeed="max">
        <route edges="E10 E2 -E1 -E6"/>
    </vehicle>
    <vehicle id="51" depart="77.90" departSpeed="max">
        <route edges="E6 E1 -E4 -E16"/>
    </vehicle>
    <vehicle id="52" depart="79.43" departSpeed="max">
        <route edges="E13 E3 -E1 -E5"/>
    </vehicle>
    <vehicle id="53" depart="80.96" departSpeed="max">
        <route edges="E11 E3 -E4 -E15"/>
    </vehicle>
    <vehicle id="54" depart="82.48" departSpeed="max">
        <route edges="E15 E4 -E2 -E9"/>
    </vehicle>
    <vehicle id="55" depart="84.01" departSpeed="max">
        <route edges="E8 E2 -E3 -E13"/>
    </vehicle>
    <vehicle id="56" depart="85.54" departSpeed="max">
        <route edges="E16 E4 -E3 -E12"/>
    </vehicle>
    <vehicle id="58" depart="88.59" departSpeed="max">
        <route edges="E13 E3 -E1 -E5"/>
    </vehicle>
    <vehicle id="59" depart="90.12" departSpeed="max">
        <route edges="E5 E1 -E3 -E11"/>
    </vehicle>
    <vehicle id="60" depart="91.65" departSpeed="max">
        <route edges="E7 E1 -E4 -E16"/>
    </vehicle>
    <vehicle id="61" depart="93.18" departSpeed="max">
        <route edges="E7 E1 -E4 -E16"/>
    </vehicle>
    <vehicle id="62" depart="94.70" departSpeed="max">
        <route edges="E10 E2 -E3 -E13"/>
    </vehicle>
    <vehicle id="63" depart="96.23" departSpeed="max">
        <route edges="E10 -E9"/>
    </vehicle>
    <vehicle id="64" depart="97.76" departSpeed="max">
        <route edges="E8 E2 -E1 -E7"/>
    </vehicle>
    <vehicle id="65" depart="99.29" departSpeed="max">
        <route edges="E13 E3 -E2 -E10"/>
    </vehicle>
    <vehicle id="66" depart="100.81" departSpeed="max">
        <route edges="E8 -E9"/>
    </vehicle>
    <vehicle id="67" depart="102.34" departSpeed="max">
        <route edges="E11 E3 -E4 -E15"/>
    </vehicle>
    <vehicle id="68" depart="103.87" departSpeed="max">
        <route edges="E10 E2 -E1 -E7"/>
    </vehicle>
    <vehicle id="69" depart="105.40" departSpeed="max">
        <route edges="E7 E1 -E3 -E11"/>
    </vehicle>
    <vehicle id="70" depart="106.92" departSpeed="max">
        <route edges="E15 -E16"/>
    </vehicle>
    <vehicle id="71" depart="108.45" departSpeed="max">
        <route edges="E13 E3 -E2 -E8"/>
    </vehicle>
    <vehicle id="72" depart="109.98" departSpeed="max">
        <route edges="E15 E4 -E3 -E12"/>
    </vehicle>
    <vehicle id="73" depart="111.51" departSpeed="max">
        <route edges="E16 E4 -E1 -E6"/>
    </vehicle>
    <vehicle id="74" depart="113.03" departSpeed="max">
        <route edges="E12 -E13"/>
    </vehicle>
    <vehicle id="75" depart="114.56" departSpeed="max">
        <route edges="E9 E2 -E1 -E5"/>
    </vehicle>
    <vehicle id="76" depart="116.09" departSpeed="max">
        <route edges="E15 -E16"/>
    </vehicle>
    <vehicle id="77" depart="117.62" departSpeed="max">
        <route edges="E11 -E12"/>
    </vehicle>
    <vehicle id="78" depart="119.14" departSpeed="max">
        <route edges="E14 E4 -E1 -E5"/>
    </vehicle>
    <vehicle id="80" depart="122.20" departSpeed="max">
        <route edges="E10 E2 -E1 -E5"/>
    </vehicle>
    <vehicle id="81" depart="123.73" departSpeed="max">
        <route edges="E12 E3 -E2 -E8"/>
    </vehicle>
    <vehicle id="82" depart="125.25" departSpeed="max">
        <route edges="E8 -E10"/>
    </vehicle>
    <vehicle id="83" depart="126.78" departSpeed="max">
        <route edges="E12 E3 -E1 -E6"/>
    </vehicle>
    <vehicle id="84" depart="128.31" departSpeed="max">
        <route edges="E12 -E11"/>
    </vehicle>
    <vehicle id="85" depart="129.84" departSpeed="max">
        <route edges="E9 E2 -E4 -E16"/>
    </vehicle>
    <vehicle id="86" depart="131.36" departSpeed="max">
        <route edges="E15 E4 -E1 -E7"/>
    </vehicle>
    <vehicle id="87" depart="132.89" departSpeed="max">
        <route edges="E7 E1 -E3 -E12"/>
    </vehicle>
    <vehicle id="88" depart="134.42" departSpeed="max">
        <route edges="E11 E3 -E4 -E15"/>
    </vehicle>
    <vehicle id="91" depart="139.00" departSpeed="max">
        <route edges="E9 E2 -E3 -E11"/>
    </vehicle>
    <vehicle id="93" depart="142.06" departSpeed="max">
        <route edges="E8 E2 -E3 -E12"/>
    </vehicle>
    <vehicle id="94" depart="143.58" departSpeed="max">
        <route edges="E12 E3 -E4 -E15"/>
    </vehicle>
    <vehicle id="95" depart="145.11" departSpeed="max">
        <route edges="E15 E4 -E3 -E13"/>
    </vehicle>
    <vehicle id="96" depart="146.64" departSpeed="max">
        <route edges="E12 E3 -E2 -E9"/>
    </vehicle>
    <vehicle id="97" depart="148.17" departSpeed="max">
        <route edges="E15 E4 -E2 -E8"/>
    </vehicle>
    <vehicle id="98" depart="149.69" departSpeed="max">
        <route edges="E16 E4 -E2 -E10"/>
    </vehicle>
    <vehicle id="99" depart="151.22" departSpeed="max">
        <route edges="E9 -E8"/>
    </vehicle>
    <vehicle id="101" depart="154.28" departSpeed="max">
        <route edges="E8 E2 -E3 -E11"/>
    </vehicle>
    <vehicle id="102" depart="155.80" departSpeed="max">
        <route edges="E15 E4 -E3 -E12"/>
    </vehicle>
    <vehicle id="103" depart="157.33" departSpeed="max">
        <route edges="E14 E4 -E2 -E10"/>
    </vehicle>
    <vehicle id="104" depart="158.86" departSpeed="max">
        <route edges="E14 E4 -E2 -E9"/>
    </vehicle>
    <vehicle id="105" depart="160.39" departSpeed="max">
        <route edges="E13 E3 -E1 -E7"/>
    </vehicle>
    <vehicle id="108" depart="164.97" departSpeed="max">
        <route edges="E16 E4 -E1 -E6"/>
    </vehicle>
    <vehicle id="109" depart="166.50" departSpeed="max">
        <route edges="E11 -E13"/>
    </vehicle>
    <vehicle id="110" depart="168.02" departSpeed="max">
        <route edges="E9 E2 -E4 -E16"/>
    </vehicle>
    <vehicle id="111" depart="169.55" departSpeed="max">
        <route edges="E16 E4 -E1 -E6"/>
    </vehicle>
    <vehicle id="112" depart="171.08" departSpeed="max">
        <route edges="E10 E2 -E1 -E5"/>
    </vehicle>
    <vehicle id="113" depart="172.61" departSpeed="max">
        <route edges="E16 E4 -E2 -E8"/>
    </vehicle>
    <vehicle id="114" depart="174.13" departSpeed="max">
        <route edges="E11 E3 -E2 -E9"/>
    </vehicle>
    <vehicle id="115" depart="175.66" departSpeed="max">
        <route edges="E10 E2 -E3 -E12"/>
    </vehicle>
    <vehicle id="116" depart="177.19" departSpeed="max">
        <route edges="E5 -E6"/>
    </vehicle>
    <vehicle id="117" depart="178.72" departSpeed="max">
        <route edges="E12 -E11"/>
    </vehicle>
    <vehicle id="118" depart="180.24" departSpeed="max">
        <route edges="E8 E2 -E3 -E12"/>
    </vehicle>
    <vehicle id="120" depart="183.30" departSpeed="max">
        <route edges="E15 E4 -E1 -E5"/>
    </vehicle>
    <vehicle id="121" depart="184.83" departSpeed="max">
        <route edges="E16 E4 -E2 -E9"/>
    </vehicle>
    <vehicle id="122" depart="186.35" departSpeed="max">
        <route edges="E12 E3 -E1 -E6"/>
    </vehicle>
    <vehicle id="123" depart="187.88" departSpeed="max">
        <route edges="E12 E3 -E4 -E14"/>
    </vehicle>
    <vehicle id="124" depart="189.41" departSpeed="max">
        <route edges="E6 E1 -E3 -E13"/>
    </vehicle>
    <vehicle id="125" depart="190.94" departSpeed="max">
        <route edges="E13 E3 -E1 -E7"/>
    </vehicle>
    <vehicle id="126" depart="192.46" departSpeed="max">
        <route edges="E10 E2 -E4 -E15"/>
    </vehicle>
    <vehicle id="128" depart="195.52" departSpeed="max">
        <route edges="E10 E2 -E3 -E12"/>
    </vehicle>
    <vehicle id="129" depart="197.05" departSpeed="max">
        <route edges="E13 E3 -E2 -E9"/>
    </vehicle>
    <vehicle id="131" depart="200.10" departSpeed="max">
        <route edges="E14 E4 -E3 -E11"/>
    </vehicle>
    <vehicle id="132" depart="201.63" departSpeed="max">
        <route edges="E8 E2 -E1 -E6"/>
    </vehicle>
    <vehicle id="133" depart="203.16" departSpeed="max">
        <route edges="E5 E1 -E2 -E9"/>
    </vehicle>
    <vehicle id="134" depart="204.68" departSpeed="max">
        <route edges="E5 E1 -E2 -E10"/>
    </vehicle>
    <vehicle id="135" depart="206.21" departSpeed="max">
        <route edges="E7 E1 -E3 -E13"/>
    </vehicle>
    <vehicle id="136" depart="207.74" departSpeed="max">
        <route edges="E5 E1 -E2 -E9"/>
    </vehicle>
    <vehicle id="138" depart="210.79" departSpeed="max">
        <route edges="E11 E3 -E4 -E16"/>
    </vehicle>
    <vehicle id="139" depart="212.32" departSpeed="max">
        <route edges="E13 E3 -E1 -E5"/>
    </vehicle>
    <vehicle id="140" depart="213.85" departSpeed="max">
        <route edges="E6 E1 -E3 -E12"/>
    </vehicle>
    <vehicle id="141" depart="215.38" departSpeed="max">
        <route edges="E5 E1 -E3 -E13"/>
    </vehicle>
    <vehicle id="142" depart="216.90" departSpeed="max">
        <route edges="E15 E4 -E2 -E8"/>
    </vehicle>
    <vehicle id="143" depart="218.43" departSpeed="max">
        <route edges="E8 E2 -E3 -E11"/>
    </vehicle>
    <vehicle id="144" depart="219.96" departSpeed="max">
        <route edges="E15 E4 -E3 -E13"/>
    </vehicle>
    <vehicle id="145" depart="221.49" departSpeed="max">
        <route edges="E10 E2 -E1 -E7"/>
    </vehicle>
    <vehicle id="146" depart="223.01" departSpeed="max">
        <route edges="E5 E1 -E3 -E13"/>
    </vehicle>
    <vehicle id="147" depart="224.54" departSpeed="max">
        <route edges="E6 E1 -E4 -E16"/>
    </vehicle>
    <vehicle id="148" depart="226.07" departSpeed="max">
        <route edges="E15 E4 -E2 -E10"/>
    </vehicle>
    <vehicle id="149" depart="227.60" departSpeed="max">
        <route edges="E10 -E8"/>
    </vehicle>
    <vehicle id="150" depart="229.12" departSpeed="max">
        <route edges="E8 E2 -E4 -E16"/>
    </vehicle>
    <vehicle id="151" depart="230.65" departSpeed="max">
        <route edges="E8 E2 -E4 -E16"/>
    </vehicle>
    <vehicle id="153" depart="233.71" departSpeed="max">
        <route edges="E13 E3 -E2 -E8"/>
    </vehicle>
    <vehicle id="154" depart="235.23" departSpeed="max">
        <route edges="E7 E1 -E2 -E8"/>
    </vehicle>
    <vehicle id="155" depart="236.76" departSpeed="max">
        <route edges="E8 E2 -E3 -E12"/>
    </vehicle>
    <vehicle id="156" depart="238.29" departSpeed="max">
        <route edges="E12 -E11"/>
    </vehicle>
    <vehicle id="157" depart="239.82" departSpeed="max">
        <route edges="E7 E1 -E2 -E8"/>
    </vehicle>
    <vehicle id="158" depart="241.34" departSpeed="max">
        <route edges="E14 E4 -E1 -E5"/>
    </vehicle>
    <vehicle id="159" depart="242.87" departSpeed="max">
        <route edges="E11 E3 -E2 -E9"/>
    </vehicle>
    <vehicle id="160" depart="244.40" departSpeed="max">
        <route edges="E8 -E9"/>
    </vehicle>
    <vehicle id="161" depart="245.93" departSpeed="max">
        <route edges="E7 E1 -E2 -E8"/>
    </vehicle>
    <vehicle id="162" depart="247.45" departSpeed="max">
        <route edges="E10 E2 -E1 -E6"/>
    </vehicle>
    <vehicle id="163" depart="248.98" departSpeed="max">
        <route edges="E13 E3 -E2 -E9"/>
    </vehicle>
    <vehicle id="164" depart="250.51" departSpeed="max">
        <route edges="E7 E1 -E2 -E8"/>
    </vehicle>
    <vehicle id="165" depart="252.04" departSpeed="max">
        <route edges="E7 E1 -E3 -E13"/>
    </vehicle>
    <vehicle id="166" depart="253.56" departSpeed="max">
        <route edges="E7 E1 -E3 -E11"/>
    </vehicle>
    <vehicle id="168" depart="256.62" departSpeed="max">
        <route edges="E12 E3 -E1 -E7"/>
    </vehicle>
    <vehicle id="169" depart="258.15" departSpeed="max">
        <route edges="E15 E4 -E3 -E13"/>
    </vehicle>
    <vehicle id="170" depart="259.67" departSpeed="max">
        <route edges="E7 E1 -E3 -E12"/>
    </vehicle>
    <vehicle id="171" depart="261.20" departSpeed="max">
        <route edges="E10 E2 -E3 -E12"/>
    </vehicle>
    <vehicle id="172" depart="262.73" departSpeed="max">
        <route edges="E13 E3 -E2 -E8"/>
    </vehicle>
    <vehicle id="173" depart="264.26" departSpeed="max">
        <route edges="E9 E2 -E3 -E13"/>
    </vehicle>
    <vehicle id="174" depart="265.78" departSpeed="max">
        <route edges="E5 E1 -E4 -E14"/>
    </vehicle>
    <vehicle id="175" depart="267.31" departSpeed="max">
        <route edges="E9 E2 -E4 -E16"/>
    </vehicle>
    <vehicle id="176" depart="268.84" departSpeed="max">
        <route edges="E9 E2 -E3 -E11"/>
    </vehicle>
    <vehicle id="177" depart="270.37" departSpeed="max">
        <route edges="E9 E2 -E3 -E12"/>
    </vehicle>
    <vehicle id="178" depart="271.89" departSpeed="max">
        <route edges="E9 E2 -E3 -E13"/>
    </vehicle>
    <vehicle id="179" depart="273.42" departSpeed="max">
        <route edges="E11 E3 -E4 -E15"/>
    </vehicle>
    <vehicle id="180" depart="274.95" departSpeed="max">
        <route edges="E6 E1 -E3 -E13"/>
    </vehicle>
    <vehicle id="181" depart="276.48" departSpeed="max">
        <route edges="E5 E1 -E4 -E16"/>
    </vehicle>
    <vehicle id="182" depart="278.00" departSpeed="max">
        <route edges="E14 -E16"/>
    </vehicle>
    <vehicle id="183" depart="279.53" departSpeed="max">
        <route edges="E13 E3 -E1 -E6"/>
    </vehicle>
    <vehicle id="184" depart="281.06" departSpeed="max">
        <route edges="E10 -E9"/>
    </vehicle>
    <vehicle id="185" depart="282.59" departSpeed="max">
        <route edges="E16 E4 -E1 -E6"/>
    </vehicle>
    <vehicle id="187" depart="285.64" departSpeed="max">
        <route edges="E14 E4 -E2 -E10"/>
    </vehicle>
    <vehicle id="188" depart="287.17" departSpeed="max">
        <route edges="E5 E1 -E3 -E13"/>
    </vehicle>
    <vehicle id="189" depart="288.70" departSpeed="max">
        <route edges="E13 E3 -E2 -E8"/>
    </vehicle>
    <vehicle id="190" depart="290.22" departSpeed="max">
        <route edges="E6 E1 -E3 -E13"/>
    </vehicle>
    <vehicle id="191" depart="291.75" departSpeed="max">
        <route edges="E13 E3 -E4 -E14"/>
    </vehicle>
    <vehicle id="192" depart="293.28" departSpeed="max">
        <route edges="E14 E4 -E3 -E13"/>
    </vehicle>
    <vehicle id="193" depart="294.81" departSpeed="max">
        <route edges="E11 E3 -E4 -E15"/>
    </vehicle>
    <vehicle id="194" depart="296.33" departSpeed="max">
        <route edges="E9 E2 -E1 -E6"/>
    </vehicle>
    <vehicle id="195" depart="297.86" departSpeed="max">
        <route edges="E8 E2 -E1 -E5"/>
    </vehicle>
    <vehicle id="196" depart="299.39" departSpeed="max">
        <route edges="E13 E3 -E4 -E16"/>
    </vehicle>
    <vehicle id="197" depart="300.92" departSpeed="max">
        <route edges="E10 E2 -E3 -E13"/>
    </vehicle>
    <vehicle id="198" depart="302.44" departSpeed="max">
        <route edges="E15 -E16"/>
    </vehicle>
    <vehicle id="199" depart="303.97" departSpeed="max">
        <route edges="E5 E1 -E4 -E15"/>
    </vehicle>
    <vehicle id="200" depart="305.50" departSpeed="max">
        <route edges="E15 E4 -E3 -E12"/>
    </vehicle>
    <vehicle id="201" depart="307.03" departSpeed="max">
        <route edges="E15 E4 -E2 -E8"/>
    </vehicle>
    <vehicle id="202" depart="308.55" departSpeed="max">
        <route edges="E7 E1 -E3 -E12"/>
    </vehicle>
    <vehicle id="203" depart="310.08" departSpeed="max">
        <route edges="E11 E3 -E4 -E16"/>
    </vehicle>
    <vehicle id="204" depart="311.61" departSpeed="max">
        <route edges="E5 E1 -E4 -E14"/>
    </vehicle>
    <vehicle id="206" depart="314.66" departSpeed="max">
        <route edges="E6 E1 -E3 -E12"/>
    </vehicle>
    <vehicle id="207" depart="316.19" departSpeed="max">
        <route edges="E12 E3 -E2 -E10"/>
    </vehicle>
    <vehicle id="208" depart="317.72" departSpeed="max">
        <route edges="E12 E3 -E4 -E15"/>
    </vehicle>
    <vehicle id="209" depart="319.25" departSpeed="max">
        <route edges="E8 -E10"/>
    </vehicle>
    <vehicle id="210" depart="320.77" departSpeed="max">
        <route edges="E14 E4 -E1 -E5"/>
    </vehicle>
    <vehicle id="211" depart="322.30" departSpeed="max">
        <route edges="E12 E3 -E1 -E6"/>
    </vehicle>
    <vehicle id="212" depart="323.83" departSpeed="max">
        <route edges="E15 E4 -E3 -E12"/>
    </vehicle>
    <vehicle id="213" depart="325.36" departSpeed="max">
        <route edges="E5 E1 -E2 -E10"/>
    </vehicle>
    <vehicle id="215" depart="328.41" departSpeed="max">
        <route edges="E11 E3 -E4 -E15"/>
    </vehicle>
    <vehicle id="216" depart="329.94" departSpeed="max">
        <route edges="E12 E3 -E2 -E9"/>
    </vehicle>
    <vehicle id="217" depart="331.47" departSpeed="max">
        <route edges="E16 E4 -E2 -E10"/>
    </vehicle>
    <vehicle id="218" depart="332.99" departSpeed="max">
        <route edges="E12 E3 -E2 -E8"/>
    </vehicle>
    <vehicle id="219" depart="334.52" departSpeed="max">
        <route edges="E15 E4 -E1 -E7"/>
    </vehicle>
    <vehicle id="220" depart="336.05" departSpeed="max">
        <route edges="E6 E1 -E2 -E9"/>
    </vehicle>
    <vehicle id="221" depart="337.58" departSpeed="max">
        <route edges="E5 E1 -E2 -E9"/>
    </vehicle>
    <vehicle id="222" depart="339.10" departSpeed="max">
        <route edges="E8 E2 -E1 -E5"/>
    </vehicle>
    <vehicle id="223" depart="340.63" departSpeed="max">
        <route edges="E6 E1 -E4 -E16"/>
    </vehicle>
    <vehicle id="224" depart="342.16" departSpeed="max">
        <route edges="E7 E1 -E4 -E16"/>
    </vehicle>
    <vehicle id="225" depart="343.69" departSpeed="max">
        <route edges="E8 E2 -E1 -E6"/>
    </vehicle>
    <vehicle id="226" depart="345.21" departSpeed="max">
        <route edges="E15 E4 -E3 -E13"/>
    </vehicle>
    <vehicle id="227" depart="346.74" departSpeed="max">
        <route edges="E12 E3 -E1 -E5"/>
    </vehicle>
    <vehicle id="228" depart="348.27" departSpeed="max">
        <route edges="E7 E1 -E4 -E16"/>
    </vehicle>
    <vehicle id="229" depart="349.80" departSpeed="max">
        <route edges="E5 E1 -E3 -E13"/>
    </vehicle>
    <vehicle id="230" depart="351.32" departSpeed="max">
        <route edges="E10 E2 -E3 -E13"/>
    </vehicle>
    <vehicle id="232" depart="354.38" departSpeed="max">
        <route edges="E16 E4 -E3 -E11"/>
    </vehicle>
    <vehicle id="233" depart="355.91" departSpeed="max">
        <route edges="E12 E3 -E1 -E6"/>
    </vehicle>
    <vehicle id="234" depart="357.43" departSpeed="max">
        <route edges="E6 E1 -E2 -E10"/>
    </vehicle>
    <vehicle id="235" depart="358.96" departSpeed="max">
        <route edges="E14 -E16"/>
    </vehicle>
    <vehicle id="236" depart="360.49" departSpeed="max">
        <route edges="E14 E4 -E3 -E12"/>
    </vehicle>
    <vehicle id="237" depart="362.02" departSpeed="max">
        <route edges="E15 E4 -E2 -E8"/>
    </vehicle>
    <vehicle id="238" depart="363.54" departSpeed="max">
        <route edges="E5 -E6"/>
    </vehicle>
    <vehicle id="239" depart="365.07" departSpeed="max">
        <route edges="E8 E2 -E1 -E7"/>
    </vehicle>
    <vehicle id="240" depart="366.60" departSpeed="max">
        <route edges="E14 E4 -E2 -E10"/>
    </vehicle>
    <vehicle id="241" depart="368.13" departSpeed="max">
        <route edges="E14 E4 -E1 -E7"/>
    </vehicle>
    <vehicle id="242" depart="369.65" departSpeed="max">
        <route edges="E8 -E9"/>
    </vehicle>
    <vehicle id="243" depart="371.18" departSpeed="max">
        <route edges="E15 E4 -E1 -E6"/>
    </vehicle>
    <vehicle id="244" depart="372.71" departSpeed="max">
        <route edges="E16 E4 -E1 -E5"/>
    </vehicle>
    <vehicle id="246" depart="375.76" departSpeed="max">
        <route edges="E15 E4 -E2 -E10"/>
    </vehicle>
    <vehicle id="247" depart="377.29" departSpeed="max">
        <route edges="E14 E4 -E1 -E6"/>
    </vehicle>
    <vehicle id="248" depart="378.82" departSpeed="max">
        <route edges="E14 E4 -E3 -E11"/>
    </vehicle>
    <vehicle id="249" depart="380.35" departSpeed="max">
        <route edges="E15 E4 -E3 -E11"/>
    </vehicle>
    <vehicle id="250" depart="381.87" departSpeed="max">
        <route edges="E5 E1 -E2 -E10"/>
    </vehicle>
    <vehicle id="251" depart="383.40" departSpeed="max">
        <route edges="E14 -E16"/>
    </vehicle>
    <vehicle id="252" depart="384.93" departSpeed="max">
        <route edges="E10 E2 -E1 -E5"/>
    </vehicle>
    <vehicle id="253" depart="386.46" departSpeed="max">
        <route edges="E11 E3 -E4 -E15"/>
    </vehicle>
    <vehicle id="254" depart="387.98" departSpeed="max">
        <route edges="E10 E2 -E4 -E14"/>
    </vehicle>
    <vehicle id="255" depart="389.51" departSpeed="max">
        <route edges="E12 -E13"/>
    </vehicle>
    <vehicle id="256" depart="391.04" departSpeed="max">
        <route edges="E7 E1 -E4 -E14"/>
    </vehicle>
    <vehicle id="258" depart="394.09" departSpeed="max">
        <route edges="E13 E3 -E2 -E10"/>
    </vehicle>
    <vehicle id="259" depart="395.62" departSpeed="max">
        <route edges="E10 E2 -E4 -E16"/>
    </vehicle>
    <vehicle id="260" depart="397.15" departSpeed="max">
        <route edges="E9 E2 -E4 -E14"/>
    </vehicle>
    <vehicle id="261" depart="398.68" departSpeed="max">
        <route edges="E5 -E7"/>
    </vehicle>
    <vehicle id="262" depart="400.20" departSpeed="max">
        <route edges="E5 -E7"/>
    </vehicle>
    <vehicle id="263" depart="401.73" departSpeed="max">
        <route edges="E9 E2 -E3 -E12"/>
    </vehicle>
    <vehicle id="264" depart="403.26" departSpeed="max">
        <route edges="E10 E2 -E3 -E11"/>
    </vehicle>
    <vehicle id="265" depart="404.79" departSpeed="max">
        <route edges="E11 E3 -E1 -E6"/>
    </vehicle>
    <vehicle id="266" depart="406.31" departSpeed="max">
        <route edges="E16 E4 -E3 -E12"/>
    </vehicle>
    <vehicle id="267" depart="407.84" departSpeed="max">
        <route edges="E6 -E7"/>
    </vehicle>
    <vehicle id="268" depart="409.37" departSpeed="max">
        <route edges="E12 E3 -E1 -E5"/>
    </vehicle>
    <vehicle id="269" depart="410.90" departSpeed="max">
        <route edges="E6 E1 -E3 -E11"/>
    </vehicle>
    <vehicle id="270" depart="412.42" departSpeed="max">
        <route edges="E7 E1 -E2 -E9"/>
    </vehicle>
    <vehicle id="271" depart="413.95" departSpeed="max">
        <route edges="E11 E3 -E2 -E10"/>
    </vehicle>
    <vehicle id="272" depart="415.48" departSpeed="max">
        <route edges="E13 E3 -E1 -E6"/>
    </vehicle>
    <vehicle id="273" depart="417.01" departSpeed="max">
        <route edges="E9 E2 -E4 -E14"/>
    </vehicle>
    <vehicle id="274" depart="418.53" departSpeed="max">
        <route edges="E6 E1 -E2 -E10"/>
    </vehicle>
    <vehicle id="275" depart="420.06" departSpeed="max">
        <route edges="E6 -E5"/>
    </vehicle>
    <vehicle id="276" depart="421.59" departSpeed="max">
        <route edges="E11 E3 -E1 -E7"/>
    </vehicle>
    <vehicle id="277" depart="423.12" departSpeed="max">
        <route edges="E8 E2 -E1 -E5"/>
    </vehicle>
    <vehicle id="278" depart="424.64" departSpeed="max">
        <route edges="E11 E3 -E2 -E9"/>
    </vehicle>
    <vehicle id="279" depart="426.17" departSpeed="max">
        <route edges="E7 E1 -E4 -E14"/>
    </vehicle>
    <vehicle id="280" depart="427.70" departSpeed="max">
        <route edges="E15 -E14"/>
    </vehicle>
    <vehicle id="281" depart="429.23" departSpeed="max">
        <route edges="E16 -E14"/>
    </vehicle>
    <vehicle id="282" depart="430.75" departSpeed="max">
        <route edges="E8 E2 -E1 -E7"/>
    </vehicle>
    <vehicle id="283" depart="432.28" departSpeed="max">
        <route edges="E11 E3 -E2 -E9"/>
    </vehicle>