<configuration>
    <input>
        <net-file value="5int.net.xml"/>
        <route-files value="5int_low.rou.xml"/>
    </input>
    <processing>
        <lateral-resolution value="1" />
        <waiting-time-memory value="4000" />
    </processing>
</configuration>