<?xml version="1.0" encoding="UTF-8"?>

<!-- generated on 2025-01-06 23:03:11 by Eclipse SUMO netedit Version 1.20.0
<configuration xmlns:xsi="http://www.w3.org/2001/XMLSchema-instance" xsi:noNamespaceSchemaLocation="http://sumo.dlr.de/xsd/neteditConfiguration.xsd">

    <input>
        <sumo-net-file value="5int.net.xml"/>
    </input>

    <output>
        <output-file value="5int.net.xml"/>
    </output>

    <processing>
        <geometry.min-radius.fix.railways value="false"/>
        <geometry.max-grade.fix value="false"/>
        <offset.disable-normalization value="true"/>
        <lefthand value="0"/>
    </processing>

    <junctions>
        <no-turnarounds value="true"/>
        <junctions.corner-detail value="5"/>
        <junctions.limit-turn-speed value="5.50"/>
        <rectangular-lane-cut value="0"/>
    </junctions>

    <pedestrian>
        <walkingareas value="0"/>
    </pedestrian>

</configuration>
-->

<net version="1.20" junctionCornerDetail="5" limitTurnSpeed="5.50" xmlns:xsi="http://www.w3.org/2001/XMLSchema-instance" xsi:noNamespaceSchemaLocation="http://sumo.dlr.de/xsd/net_file.xsd">

    <location netOffset="0.00,0.00" convBoundary="-550.00,-550.00,550.00,550.00" origBoundary="-10000000000.00,-10000000000.00,10000000000.00,10000000000.00" projParameter="!"/>

    <edge id=":J0_0" function="internal">
        <lane id=":J0_0_0" index="0" speed="6.51" length="9.03" shape="-8.00,13.60 -8.35,11.15 -9.40,9.40 -11.15,8.35 -13.60,8.00"/>
    </edge>
    <edge id=":J0_1" function="internal">
        <lane id=":J0_1_0" index="0" speed="13.89" length="27.20" shape="-8.00,13.60 -8.00,-13.60"/>
        <lane id=":J0_1_1" index="1" speed="13.89" length="27.20" shape="-4.80,13.60 -4.80,-13.60"/>
    </edge>
    <edge id=":J0_3" function="internal">
        <lane id=":J0_3_0" index="0" speed="10.36" length="12.07" shape="-1.60,13.60 -0.65,6.95 2.10,2.36"/>
    </edge>
    <edge id=":J0_16" function="internal">
        <lane id=":J0_16_0" index="0" speed="10.36" length="12.44" shape="2.10,2.36 2.20,2.20 6.95,-0.65 13.60,-1.60"/>
    </edge>
    <edge id=":J0_4" function="internal">
        <lane id=":J0_4_0" index="0" speed="6.51" length="9.03" shape="13.60,8.00 11.15,8.35 9.40,9.40 8.35,11.15 8.00,13.60"/>
    </edge>
    <edge id=":J0_5" function="internal">
        <lane id=":J0_5_0" index="0" speed="13.89" length="27.20" shape="13.60,8.00 -13.60,8.00"/>
        <lane id=":J0_5_1" index="1" speed="13.89" length="27.20" shape="13.60,4.80 -13.60,4.80"/>
    </edge>
    <edge id=":J0_7" function="internal">
        <lane id=":J0_7_0" index="0" speed="10.36" length="12.07" shape="13.60,1.60 6.95,0.65 2.36,-2.10"/>
    </edge>
    <edge id=":J0_17" function="internal">
        <lane id=":J0_17_0" index="0" speed="10.36" length="12.44" shape="2.36,-2.10 2.20,-2.20 -0.65,-6.95 -1.60,-13.60"/>
    </edge>
    <edge id=":J0_8" function="internal">
        <lane id=":J0_8_0" index="0" speed="6.51" length="9.03" shape="8.00,-13.60 8.35,-11.15 9.40,-9.40 11.15,-8.35 13.60,-8.00"/>
    </edge>
    <edge id=":J0_9" function="internal">
        <lane id=":J0_9_0" index="0" speed="13.89" length="27.20" shape="8.00,-13.60 8.00,13.60"/>
        <lane id=":J0_9_1" index="1" speed="13.89" length="27.20" shape="4.80,-13.60 4.80,13.60"/>
    </edge>
    <edge id=":J0_11" function="internal">
        <lane id=":J0_11_0" index="0" speed="10.36" length="12.07" shape="1.60,-13.60 0.65,-6.95 -2.10,-2.36"/>
    </edge>
    <edge id=":J0_18" function="internal">
        <lane id=":J0_18_0" index="0" speed="10.36" length="12.44" shape="-2.10,-2.36 -2.20,-2.20 -6.95,0.65 -13.60,1.60"/>
    </edge>
    <edge id=":J0_12" function="internal">
        <lane id=":J0_12_0" index="0" speed="6.51" length="9.03" shape="-13.60,-8.00 -11.15,-8.35 -9.40,-9.40 -8.35,-11.15 -8.00,-13.60"/>
    </edge>
    <edge id=":J0_13" function="internal">
        <lane id=":J0_13_0" index="0" speed="13.89" length="27.20" shape="-13.60,-8.00 13.60,-8.00"/>
        <lane id=":J0_13_1" index="1" speed="13.89" length="27.20" shape="-13.60,-4.80 13.60,-4.80"/>
    </edge>
    <edge id=":J0_15" function="internal">
        <lane id=":J0_15_0" index="0" speed="10.36" length="12.07" shape="-13.60,-1.60 -6.95,-0.65 -2.36,2.10"/>
    </edge>
    <edge id=":J0_19" function="internal">
        <lane id=":J0_19_0" index="0" speed="10.36" length="12.44" shape="-2.36,2.10 -2.20,2.20 0.65,6.95 1.60,13.60"/>
    </edge>
    <edge id=":J1_0" function="internal">
        <lane id=":J1_0_0" index="0" speed="6.51" length="9.03" shape="-8.00,313.60 -8.35,311.15 -9.40,309.40 -11.15,308.35 -13.60,308.00"/>
    </edge>
    <edge id=":J1_1" function="internal">
        <lane id=":J1_1_0" index="0" speed="13.89" length="27.20" shape="-8.00,313.60 -8.00,286.40"/>
        <lane id=":J1_1_1" index="1" speed="13.89" length="27.20" shape="-4.80,313.60 -4.80,286.40"/>
    </edge>
    <edge id=":J1_3" function="internal">
        <lane id=":J1_3_0" index="0" speed="10.36" length="12.07" shape="-1.60,313.60 -0.65,306.95 2.10,302.36"/>
    </edge>
    <edge id=":J1_16" function="internal">
        <lane id=":J1_16_0" index="0" speed="10.36" length="12.44" shape="2.10,302.36 2.20,302.20 6.95,299.35 13.60,298.40"/>
    </edge>
    <edge id=":J1_4" function="internal">
        <lane id=":J1_4_0" index="0" speed="6.51" length="9.03" shape="13.60,308.00 11.15,308.35 9.40,309.40 8.35,311.15 8.00,313.60"/>
    </edge>
    <edge id=":J1_5" function="internal">
        <lane id=":J1_5_0" index="0" speed="13.89" length="27.20" shape="13.60,308.00 -13.60,308.00"/>
        <lane id=":J1_5_1" index="1" speed="13.89" length="27.20" shape="13.60,304.80 -13.60,304.80"/>
    </edge>
    <edge id=":J1_7" function="internal">
        <lane id=":J1_7_0" index="0" speed="10.36" length="12.07" shape="13.60,301.60 6.95,300.65 2.36,297.90"/>
    </edge>
    <edge id=":J1_17" function="internal">
        <lane id=":J1_17_0" index="0" speed="10.36" length="12.44" shape="2.36,297.90 2.20,297.80 -0.65,293.05 -1.60,286.40"/>
    </edge>
    <edge id=":J1_8" function="internal">
        <lane id=":J1_8_0" index="0" speed="6.51" length="9.03" shape="8.00,286.40 8.35,288.85 9.40,290.60 11.15,291.65 13.60,292.00"/>
    </edge>
    <edge id=":J1_9" function="internal">
        <lane id=":J1_9_0" index="0" speed="13.89" length="27.20" shape="8.00,286.40 8.00,313.60"/>
        <lane id=":J1_9_1" index="1" speed="13.89" length="27.20" shape="4.80,286.40 4.80,313.60"/>
    </edge>
    <edge id=":J1_11" function="internal">
        <lane id=":J1_11_0" index="0" speed="10.36" length="12.07" shape="1.60,286.40 0.65,293.05 -2.10,297.64"/>
    </edge>
    <edge id=":J1_18" function="internal">
        <lane id=":J1_18_0" index="0" speed="10.36" length="12.44" shape="-2.10,297.64 -2.20,297.80 -6.95,300.65 -13.60,301.60"/>
    </edge>
    <edge id=":J1_12" function="internal">
        <lane id=":J1_12_0" index="0" speed="6.51" length="9.03" shape="-13.60,292.00 -11.15,291.65 -9.40,290.60 -8.35,288.85 -8.00,286.40"/>
    </edge>
    <edge id=":J1_13" function="internal">
        <lane id=":J1_13_0" index="0" speed="13.89" length="27.20" shape="-13.60,292.00 13.60,292.00"/>
        <lane id=":J1_13_1" index="1" speed="13.89" length="27.20" shape="-13.60,295.20 13.60,295.20"/>
    </edge>
    <edge id=":J1_15" function="internal">
        <lane id=":J1_15_0" index="0" speed="10.36" length="12.07" shape="-13.60,298.40 -6.95,299.35 -2.36,302.10"/>
    </edge>
    <edge id=":J1_19" function="internal">
        <lane id=":J1_19_0" index="0" speed="10.36" length="12.44" shape="-2.36,302.10 -2.20,302.20 0.65,306.95 1.60,313.60"/>
    </edge>
    <edge id=":J2_0" function="internal">
        <lane id=":J2_0_0" index="0" speed="6.51" length="9.03" shape="292.00,13.60 291.65,11.15 290.60,9.40 288.85,8.35 286.40,8.00"/>
    </edge>
    <edge id=":J2_1" function="internal">
        <lane id=":J2_1_0" index="0" speed="13.89" length="27.20" shape="292.00,13.60 292.00,-13.60"/>
        <lane id=":J2_1_1" index="1" speed="13.89" length="27.20" shape="295.20,13.60 295.20,-13.60"/>
    </edge>
    <edge id=":J2_3" function="internal">
        <lane id=":J2_3_0" index="0" speed="10.36" length="12.07" shape="298.40,13.60 299.35,6.95 302.10,2.36"/>
    </edge>
    <edge id=":J2_16" function="internal">
        <lane id=":J2_16_0" index="0" speed="10.36" length="12.44" shape="302.10,2.36 302.20,2.20 306.95,-0.65 313.60,-1.60"/>
    </edge>
    <edge id=":J2_4" function="internal">
        <lane id=":J2_4_0" index="0" speed="6.51" length="9.03" shape="313.60,8.00 311.15,8.35 309.40,9.40 308.35,11.15 308.00,13.60"/>
    </edge>
    <edge id=":J2_5" function="internal">
        <lane id=":J2_5_0" index="0" speed="13.89" length="27.20" shape="313.60,8.00 286.40,8.00"/>
        <lane id=":J2_5_1" index="1" speed="13.89" length="27.20" shape="313.60,4.80 286.40,4.80"/>
    </edge>
    <edge id=":J2_7" function="internal">
        <lane id=":J2_7_0" index="0" speed="10.36" length="12.07" shape="313.60,1.60 306.95,0.65 302.36,-2.10"/>
    </edge>
    <edge id=":J2_17" function="internal">
        <lane id=":J2_17_0" index="0" speed="10.36" length="12.44" shape="302.36,-2.10 302.20,-2.20 299.35,-6.95 298.40,-13.60"/>
    </edge>
    <edge id=":J2_8" function="internal">
        <lane id=":J2_8_0" index="0" speed="6.51" length="9.03" shape="308.00,-13.60 308.35,-11.15 309.40,-9.40 311.15,-8.35 313.60,-8.00"/>
    </edge>
    <edge id=":J2_9" function="internal">
        <lane id=":J2_9_0" index="0" speed="13.89" length="27.20" shape="308.00,-13.60 308.00,13.60"/>
        <lane id=":J2_9_1" index="1" speed="13.89" length="27.20" shape="304.80,-13.60 304.80,13.60"/>
    </edge>
    <edge id=":J2_11" function="internal">
        <lane id=":J2_11_0" index="0" speed="10.36" length="12.07" shape="301.60,-13.60 300.65,-6.95 297.90,-2.36"/>
    </edge>
    <edge id=":J2_18" function="internal">
        <lane id=":J2_18_0" index="0" speed="10.36" length="12.44" shape="297.90,-2.36 297.80,-2.20 293.05,0.65 286.40,1.60"/>
    </edge>
    <edge id=":J2_12" function="internal">
        <lane id=":J2_12_0" index="0" speed="6.51" length="9.03" shape="286.40,-8.00 288.85,-8.35 290.60,-9.40 291.65,-11.15 292.00,-13.60"/>
    </edge>
    <edge id=":J2_13" function="internal">
        <lane id=":J2_13_0" index="0" speed="13.89" length="27.20" shape="286.40,-8.00 313.60,-8.00"/>
        <lane id=":J2_13_1" index="1" speed="13.89" length="27.20" shape="286.40,-4.80 313.60,-4.80"/>
    </edge>
    <edge id=":J2_15" function="internal">
        <lane id=":J2_15_0" index="0" speed="10.36" length="12.07" shape="286.40,-1.60 293.05,-0.65 297.64,2.10"/>
    </edge>
    <edge id=":J2_19" function="internal">
        <lane id=":J2_19_0" index="0" speed="10.36" length="12.44" shape="297.64,2.10 297.80,2.20 300.65,6.95 301.60,13.60"/>
    </edge>
    <edge id=":J3_0" function="internal">
        <lane id=":J3_0_0" index="0" speed="6.51" length="9.03" shape="-8.00,-286.40 -8.35,-288.85 -9.40,-290.60 -11.15,-291.65 -13.60,-292.00"/>
    </edge>
    <edge id=":J3_1" function="internal">
        <lane id=":J3_1_0" index="0" speed="13.89" length="27.20" shape="-8.00,-286.40 -8.00,-313.60"/>
        <lane id=":J3_1_1" index="1" speed="13.89" length="27.20" shape="-4.80,-286.40 -4.80,-313.60"/>
    </edge>
    <edge id=":J3_3" function="internal">
        <lane id=":J3_3_0" index="0" speed="10.36" length="12.07" shape="-1.60,-286.40 -0.65,-293.05 2.10,-297.64"/>
    </edge>
    <edge id=":J3_16" function="internal">
        <lane id=":J3_16_0" index="0" speed="10.36" length="12.44" shape="2.10,-297.64 2.20,-297.80 6.95,-300.65 13.60,-301.60"/>
    </edge>
    <edge id=":J3_4" function="internal">
        <lane id=":J3_4_0" index="0" speed="6.51" length="9.03" shape="13.60,-292.00 11.15,-291.65 9.40,-290.60 8.35,-288.85 8.00,-286.40"/>
    </edge>
    <edge id=":J3_5" function="internal">
        <lane id=":J3_5_0" index="0" speed="13.89" length="27.20" shape="13.60,-292.00 -13.60,-292.00"/>
        <lane id=":J3_5_1" index="1" speed="13.89" length="27.20" shape="13.60,-295.20 -13.60,-295.20"/>
    </edge>
    <edge id=":J3_7" function="internal">
        <lane id=":J3_7_0" index="0" speed="10.36" length="12.07" shape="13.60,-298.40 6.95,-299.35 2.36,-302.10"/>
    </edge>
    <edge id=":J3_17" function="internal">
        <lane id=":J3_17_0" index="0" speed="10.36" length="12.44" shape="2.36,-302.10 2.20,-302.20 -0.65,-306.95 -1.60,-313.60"/>
    </edge>
    <edge id=":J3_8" function="internal">
        <lane id=":J3_8_0" index="0" speed="6.51" length="9.03" shape="8.00,-313.60 8.35,-311.15 9.40,-309.40 11.15,-308.35 13.60,-308.00"/>
    </edge>
    <edge id=":J3_9" function="internal">
        <lane id=":J3_9_0" index="0" speed="13.89" length="27.20" shape="8.00,-313.60 8.00,-286.40"/>
        <lane id=":J3_9_1" index="1" speed="13.89" length="27.20" shape="4.80,-313.60 4.80,-286.40"/>
    </edge>
    <edge id=":J3_11" function="internal">
        <lane id=":J3_11_0" index="0" speed="10.36" length="12.07" shape="1.60,-313.60 0.65,-306.95 -2.10,-302.36"/>
    </edge>
    <edge id=":J3_18" function="internal">
        <lane id=":J3_18_0" index="0" speed="10.36" length="12.44" shape="-2.10,-302.36 -2.20,-302.20 -6.95,-299.35 -13.60,-298.40"/>
    </edge>
    <edge id=":J3_12" function="internal">
        <lane id=":J3_12_0" index="0" speed="6.51" length="9.03" shape="-13.60,-308.00 -11.15,-308.35 -9.40,-309.40 -8.35,-311.15 -8.00,-313.60"/>
    </edge>
    <edge id=":J3_13" function="internal">
        <lane id=":J3_13_0" index="0" speed="13.89" length="27.20" shape="-13.60,-308.00 13.60,-308.00"/>
        <lane id=":J3_13_1" index="1" speed="13.89" length="27.20" shape="-13.60,-304.80 13.60,-304.80"/>
    </edge>
    <edge id=":J3_15" function="internal">
        <lane id=":J3_15_0" index="0" speed="10.36" length="12.07" shape="-13.60,-301.60 -6.95,-300.65 -2.36,-297.90"/>
    </edge>
    <edge id=":J3_19" function="internal">
        <lane id=":J3_19_0" index="0" speed="10.36" length="12.44" shape="-2.36,-297.90 -2.20,-297.80 0.65,-293.05 1.60,-286.40"/>
    </edge>
    <edge id=":J4_0" function="internal">
        <lane id=":J4_0_0" index="0" speed="6.51" length="9.03" shape="-308.00,13.60 -308.35,11.15 -309.40,9.40 -311.15,8.35 -313.60,8.00"/>
    </edge>
    <edge id=":J4_1" function="internal">
        <lane id=":J4_1_0" index="0" speed="13.89" length="27.20" shape="-308.00,13.60 -308.00,-13.60"/>
        <lane id=":J4_1_1" index="1" speed="13.89" length="27.20" shape="-304.80,13.60 -304.80,-13.60"/>
    </edge>
    <edge id=":J4_3" function="internal">
        <lane id=":J4_3_0" index="0" speed="10.36" length="12.07" shape="-301.60,13.60 -300.65,6.95 -297.90,2.36"/>
    </edge>
    <edge id=":J4_16" function="internal">
        <lane id=":J4_16_0" index="0" speed="10.36" length="12.44" shape="-297.90,2.36 -297.80,2.20 -293.05,-0.65 -286.40,-1.60"/>
    </edge>
    <edge id=":J4_4" function="internal">
        <lane id=":J4_4_0" index="0" speed="6.51" length="9.03" shape="-286.40,8.00 -288.85,8.35 -290.60,9.40 -291.65,11.15 -292.00,13.60"/>
    </edge>
    <edge id=":J4_5" function="internal">
        <lane id=":J4_5_0" index="0" speed="13.89" length="27.20" shape="-286.40,8.00 -313.60,8.00"/>
        <lane id=":J4_5_1" index="1" speed="13.89" length="27.20" shape="-286.40,4.80 -313.60,4.80"/>
    </edge>
    <edge id=":J4_7" function="internal">
        <lane id=":J4_7_0" index="0" speed="10.36" length="12.07" shape="-286.40,1.60 -293.05,0.65 -297.64,-2.10"/>
    </edge>
    <edge id=":J4_17" function="internal">
        <lane id=":J4_17_0" index="0" speed="10.36" length="12.44" shape="-297.64,-2.10 -297.80,-2.20 -300.65,-6.95 -301.60,-13.60"/>
    </edge>
    <edge id=":J4_8" function="internal">
        <lane id=":J4_8_0" index="0" speed="6.51" length="9.03" shape="-292.00,-13.60 -291.65,-11.15 -290.60,-9.40 -288.85,-8.35 -286.40,-8.00"/>
    </edge>
    <edge id=":J4_9" function="internal">
        <lane id=":J4_9_0" index="0" speed="13.89" length="27.20" shape="-292.00,-13.60 -292.00,13.60"/>
        <lane id=":J4_9_1" index="1" speed="13.89" length="27.20" shape="-295.20,-13.60 -295.20,13.60"/>
    </edge>
    <edge id=":J4_11" function="internal">
        <lane id=":J4_11_0" index="0" speed="10.36" length="12.07" shape="-298.40,-13.60 -299.35,-6.95 -302.10,-2.36"/>
    </edge>
    <edge id=":J4_18" function="internal">
        <lane id=":J4_18_0" index="0" speed="10.36" length="12.44" shape="-302.10,-2.36 -302.20,-2.20 -306.95,0.65 -313.60,1.60"/>
    </edge>
    <edge id=":J4_12" function="internal">
        <lane id=":J4_12_0" index="0" speed="6.51" length="9.03" shape="-313.60,-8.00 -311.15,-8.35 -309.40,-9.40 -308.35,-11.15 -308.00,-13.60"/>
    </edge>
    <edge id=":J4_13" function="internal">
        <lane id=":J4_13_0" index="0" speed="13.89" length="27.20" shape="-313.60,-8.00 -286.40,-8.00"/>
        <lane id=":J4_13_1" index="1" speed="13.89" length="27.20" shape="-313.60,-4.80 -286.40,-4.80"/>
    </edge>
    <edge id=":J4_15" function="internal">
        <lane id=":J4_15_0" index="0" speed="10.36" length="12.07" shape="-313.60,-1.60 -306.95,-0.65 -302.36,2.10"/>
    </edge>
    <edge id=":J4_19" function="internal">
        <lane id=":J4_19_0" index="0" speed="10.36" length="12.44" shape="-302.36,2.10 -302.20,2.20 -299.35,6.95 -298.40,13.60"/>
    </edge>

    <edge id="-E1" from="J0" to="J1" priority="-1">
        <lane id="-E1_0" index="0" speed="13.89" length="272.80" shape="8.00,13.60 8.00,286.40"/>
        <lane id="-E1_1" index="1" speed="13.89" length="272.80" shape="4.80,13.60 4.80,286.40"/>
        <lane id="-E1_2" index="2" speed="13.89" length="272.80" shape="1.60,13.60 1.60,286.40"/>
    </edge>
    <edge id="-E10" from="J2" to="J10" priority="-1">
        <lane id="-E10_0" index="0" speed="13.89" length="236.40" shape="292.00,-13.60 292.00,-250.00"/>
        <lane id="-E10_1" index="1" speed="13.89" length="236.40" shape="295.20,-13.60 295.20,-250.00"/>
        <lane id="-E10_2" index="2" speed="13.89" length="236.40" shape="298.40,-13.60 298.40,-250.00"/>
    </edge>
    <edge id="-E11" from="J3" to="J11" priority="-1">
        <lane id="-E11_0" index="0" speed="13.89" length="236.40" shape="-8.00,-313.60 -8.00,-550.00"/>
        <lane id="-E11_1" index="1" speed="13.89" length="236.40" shape="-4.80,-313.60 -4.80,-550.00"/>
        <lane id="-E11_2" index="2" speed="13.89" length="236.40" shape="-1.60,-313.60 -1.60,-550.00"/>
    </edge>
    <edge id="-E12" from="J3" to="J12" priority="-1">
        <lane id="-E12_0" index="0" speed="13.89" length="236.40" shape="13.60,-308.00 250.00,-308.00"/>
        <lane id="-E12_1" index="1" speed="13.89" length="236.40" shape="13.60,-304.80 250.00,-304.80"/>
        <lane id="-E12_2" index="2" speed="13.89" length="236.40" shape="13.60,-301.60 250.00,-301.60"/>
    </edge>
    <edge id="-E13" from="J3" to="J13" priority="-1">
        <lane id="-E13_0" index="0" speed="13.89" length="236.40" shape="-13.60,-292.00 -250.00,-292.00"/>
        <lane id="-E13_1" index="1" speed="13.89" length="236.40" shape="-13.60,-295.20 -250.00,-295.20"/>
        <lane id="-E13_2" index="2" speed="13.89" length="236.40" shape="-13.60,-298.40 -250.00,-298.40"/>
    </edge>
    <edge id="-E14" from="J4" to="J14" priority="-1">
        <lane id="-E14_0" index="0" speed="13.89" length="236.40" shape="-313.60,8.00 -550.00,8.00"/>
        <lane id="-E14_1" index="1" speed="13.89" length="236.40" shape="-313.60,4.80 -550.00,4.80"/>
        <lane id="-E14_2" index="2" speed="13.89" length="236.40" shape="-313.60,1.60 -550.00,1.60"/>
    </edge>
    <edge id="-E15" from="J4" to="J15" priority="-1">
        <lane id="-E15_0" index="0" speed="13.89" length="236.40" shape="-308.00,-13.60 -308.00,-250.00"/>
        <lane id="-E15_1" index="1" speed="13.89" length="236.40" shape="-304.80,-13.60 -304.80,-250.00"/>
        <lane id="-E15_2" index="2" speed="13.89" length="236.40" shape="-301.60,-13.60 -301.60,-250.00"/>
    </edge>
    <edge id="-E16" from="J4" to="J16" priority="-1">
        <lane id="-E16_0" index="0" speed="13.89" length="236.40" shape="-292.00,13.60 -292.00,250.00"/>
        <lane id="-E16_1" index="1" speed="13.89" length="236.40" shape="-295.20,13.60 -295.20,250.00"/>
        <lane id="-E16_2" index="2" speed="13.89" length="236.40" shape="-298.40,13.60 -298.40,250.00"/>
    </edge>
    <edge id="-E2" from="J0" to="J2" priority="-1">
        <lane id="-E2_0" index="0" speed="13.89" length="272.80" shape="13.60,-8.00 286.40,-8.00"/>
        <lane id="-E2_1" index="1" speed="13.89" length="272.80" shape="13.60,-4.80 286.40,-4.80"/>
        <lane id="-E2_2" index="2" speed="13.89" length="272.80" shape="13.60,-1.60 286.40,-1.60"/>
    </edge>
    <edge id="-E3" from="J0" to="J3" priority="-1">
        <lane id="-E3_0" index="0" speed="13.89" length="272.80" shape="-8.00,-13.60 -8.00,-286.40"/>
        <lane id="-E3_1" index="1" speed="13.89" length="272.80" shape="-4.80,-13.60 -4.80,-286.40"/>
        <lane id="-E3_2" index="2" speed="13.89" length="272.80" shape="-1.60,-13.60 -1.60,-286.40"/>
    </edge>
    <edge id="-E4" from="J0" to="J4" priority="-1">
        <lane id="-E4_0" index="0" speed="13.89" length="272.80" shape="-13.60,8.00 -286.40,8.00"/>
        <lane id="-E4_1" index="1" speed="13.89" length="272.80" shape="-13.60,4.80 -286.40,4.80"/>
        <lane id="-E4_2" index="2" speed="13.89" length="272.80" shape="-13.60,1.60 -286.40,1.60"/>
    </edge>
    <edge id="-E5" from="J1" to="J5" priority="-1">
        <lane id="-E5_0" index="0" speed="13.89" length="236.40" shape="8.00,313.60 8.00,550.00"/>
        <lane id="-E5_1" index="1" speed="13.89" length="236.40" shape="4.80,313.60 4.80,550.00"/>
        <lane id="-E5_2" index="2" speed="13.89" length="236.40" shape="1.60,313.60 1.60,550.00"/>
    </edge>
    <edge id="-E6" from="J1" to="J6" priority="-1">
        <lane id="-E6_0" index="0" speed="13.89" length="236.40" shape="-13.60,308.00 -250.00,308.00"/>
        <lane id="-E6_1" index="1" speed="13.89" length="236.40" shape="-13.60,304.80 -250.00,304.80"/>
        <lane id="-E6_2" index="2" speed="13.89" length="236.40" shape="-13.60,301.60 -250.00,301.60"/>
    </edge>
    <edge id="-E7" from="J1" to="J7" priority="-1">
        <lane id="-E7_0" index="0" speed="13.89" length="236.40" shape="13.60,292.00 250.00,292.00"/>
        <lane id="-E7_1" index="1" speed="13.89" length="236.40" shape="13.60,295.20 250.00,295.20"/>
        <lane id="-E7_2" index="2" speed="13.89" length="236.40" shape="13.60,298.40 250.00,298.40"/>
    </edge>
    <edge id="-E8" from="J2" to="J8" priority="-1">
        <lane id="-E8_0" index="0" speed="13.89" length="236.40" shape="313.60,-8.00 550.00,-8.00"/>
        <lane id="-E8_1" index="1" speed="13.89" length="236.40" shape="313.60,-4.80 550.00,-4.80"/>
        <lane id="-E8_2" index="2" speed="13.89" length="236.40" shape="313.60,-1.60 550.00,-1.60"/>
    </edge>
    <edge id="-E9" from="J2" to="J9" priority="-1">
        <lane id="-E9_0" index="0" speed="13.89" length="236.40" shape="308.00,13.60 308.00,250.00"/>
        <lane id="-E9_1" index="1" speed="13.89" length="236.40" shape="304.80,13.60 304.80,250.00"/>
        <lane id="-E9_2" index="2" speed="13.89" length="236.40" shape="301.60,13.60 301.60,250.00"/>
    </edge>
    <edge id="E1" from="J1" to="J0" priority="-1">
        <lane id="E1_0" index="0" speed="13.89" length="272.80" shape="-8.00,286.40 -8.00,13.60"/>
        <lane id="E1_1" index="1" speed="13.89" length="272.80" shape="-4.80,286.40 -4.80,13.60"/>
        <lane id="E1_2" index="2" speed="13.89" length="272.80" shape="-1.60,286.40 -1.60,13.60"/>
    </edge>
    <edge id="E10" from="J10" to="J2" priority="-1">
        <lane id="E10_0" index="0" speed="13.89" length="236.40" shape="308.00,-250.00 308.00,-13.60"/>
        <lane id="E10_1" index="1" speed="13.89" length="236.40" shape="304.80,-250.00 304.80,-13.60"/>
        <lane id="E10_2" index="2" speed="13.89" length="236.40" shape="301.60,-250.00 301.60,-13.60"/>
    </edge>
    <edge id="E11" from="J11" to="J3" priority="-1">
        <lane id="E11_0" index="0" speed="13.89" length="236.40" shape="8.00,-550.00 8.00,-313.60"/>
        <lane id="E11_1" index="1" speed="13.89" length="236.40" shape="4.80,-550.00 4.80,-313.60"/>
        <lane id="E11_2" index="2" speed="13.89" length="236.40" shape="1.60,-550.00 1.60,-313.60"/>
    </edge>
    <edge id="E12" from="J12" to="J3" priority="-1">
        <lane id="E12_0" index="0" speed="13.89" length="236.40" shape="250.00,-292.00 13.60,-292.00"/>
        <lane id="E12_1" index="1" speed="13.89" length="236.40" shape="250.00,-295.20 13.60,-295.20"/>
        <lane id="E12_2" index="2" speed="13.89" length="236.40" shape="250.00,-298.40 13.60,-298.40"/>
    </edge>
    <edge id="E13" from="J13" to="J3" priority="-1">
        <lane id="E13_0" index="0" speed="13.89" length="236.40" shape="-250.00,-308.00 -13.60,-308.00"/>
        <lane id="E13_1" index="1" speed="13.89" length="236.40" shape="-250.00,-304.80 -13.60,-304.80"/>
        <lane id="E13_2" index="2" speed="13.89" length="236.40" shape="-250.00,-301.60 -13.60,-301.60"/>
    </edge>
    <edge id="E14" from="J14" to="J4" priority="-1">
        <lane id="E14_0" index="0" speed="13.89" length="236.40" shape="-550.00,-8.00 -313.60,-8.00"/>
        <lane id="E14_1" index="1" speed="13.89" length="236.40" shape="-550.00,-4.80 -313.60,-4.80"/>
        <lane id="E14_2" index="2" speed="13.89" length="236.40" shape="-550.00,-1.60 -313.60,-1.60"/>
    </edge>
    <edge id="E15" from="J15" to="J4" priority="-1">
        <lane id="E15_0" index="0" speed="13.89" length="236.40" shape="-292.00,-250.00 -292.00,-13.60"/>
        <lane id="E15_1" index="1" speed="13.89" length="236.40" shape="-295.20,-250.00 -295.20,-13.60"/>
        <lane id="E15_2" index="2" speed="13.89" length="236.40" shape="-298.40,-250.00 -298.40,-13.60"/>
    </edge>
    <edge id="E16" from="J16" to="J4" priority="-1">
        <lane id="E16_0" index="0" speed="13.89" length="236.40" shape="-308.00,250.00 -308.00,13.60"/>
        <lane id="E16_1" index="1" speed="13.89" length="236.40" shape="-304.80,250.00 -304.80,13.60"/>
        <lane id="E16_2" index="2" speed="13.89" length="236.40" shape="-301.60,250.00 -301.60,13.60"/>
    </edge>
    <edge id="E2" from="J2" to="J0" priority="-1">
        <lane id="E2_0" index="0" speed="13.89" length="272.80" shape="286.40,8.00 13.60,8.00"/>
        <lane id="E2_1" index="1" speed="13.89" length="272.80" shape="286.40,4.80 13.60,4.80"/>
        <lane id="E2_2" index="2" speed="13.89" length="272.80" shape="286.40,1.60 13.60,1.60"/>
    </edge>
    <edge id="E3" from="J3" to="J0" priority="-1">
        <lane id="E3_0" index="0" speed="13.89" length="272.80" shape="8.00,-286.40 8.00,-13.60"/>
        <lane id="E3_1" index="1" speed="13.89" length="272.80" shape="4.80,-286.40 4.80,-13.60"/>
        <lane id="E3_2" index="2" speed="13.89" length="272.80" shape="1.60,-286.40 1.60,-13.60"/>
    </edge>
    <edge id="E4" from="J4" to="J0" priority="-1">
        <lane id="E4_0" index="0" speed="13.89" length="272.80" shape="-286.40,-8.00 -13.60,-8.00"/>
        <lane id="E4_1" index="1" speed="13.89" length="272.80" shape="-286.40,-4.80 -13.60,-4.80"/>
        <lane id="E4_2" index="2" speed="13.89" length="272.80" shape="-286.40,-1.60 -13.60,-1.60"/>
    </edge>
    <edge id="E5" from="J5" to="J1" priority="-1">
        <lane id="E5_0" index="0" speed="13.89" length="236.40" shape="-8.00,550.00 -8.00,313.60"/>
        <lane id="E5_1" index="1" speed="13.89" length="236.40" shape="-4.80,550.00 -4.80,313.60"/>
        <lane id="E5_2" index="2" speed="13.89" length="236.40" shape="-1.60,550.00 -1.60,313.60"/>
    </edge>
    <edge id="E6" from="J6" to="J1" priority="-1">
        <lane id="E6_0" index="0" speed="13.89" length="236.40" shape="-250.00,292.00 -13.60,292.00"/>
        <lane id="E6_1" index="1" speed="13.89" length="236.40" shape="-250.00,295.20 -13.60,295.20"/>
        <lane id="E6_2" index="2" speed="13.89" length="236.40" shape="-250.00,298.40 -13.60,298.40"/>
    </edge>
    <edge id="E7" from="J7" to="J1" priority="-1">
        <lane id="E7_0" index="0" speed="13.89" length="236.40" shape="250.00,308.00 13.60,308.00"/>
        <lane id="E7_1" index="1" speed="13.89" length="236.40" shape="250.00,304.80 13.60,304.80"/>
        <lane id="E7_2" index="2" speed="13.89" length="236.40" shape="250.00,301.60 13.60,301.60"/>
    </edge>
    <edge id="E8" from="J8" to="J2" priority="-1">
        <lane id="E8_0" index="0" speed="13.89" length="236.40" shape="550.00,8.00 313.60,8.00"/>
        <lane id="E8_1" index="1" speed="13.89" length="236.40" shape="550.00,4.80 313.60,4.80"/>
        <lane id="E8_2" index="2" speed="13.89" length="236.40" shape="550.00,1.60 313.60,1.60"/>
    </edge>
    <edge id="E9" from="J9" to="J2" priority="-1">
        <lane id="E9_0" index="0" speed="13.89" length="236.40" shape="292.00,250.00 292.00,13.60"/>
        <lane id="E9_1" index="1" speed="13.89" length="236.40" shape="295.20,250.00 295.20,13.60"/>
        <lane id="E9_2" index="2" speed="13.89" length="236.40" shape="298.40,250.00 298.40,13.60"/>
    </edge>

    <tlLogic id="J0" type="static" programID="0" offset="0">
        <phase duration="33" state="GGGgsrrrGGGgsrrr"/>
        <phase duration="3"  state="syygsrrrsyygsrrr"/>
        <phase duration="6"  state="srrGsrrrsrrGsrrr"/>
        <phase duration="3"  state="srrysrrrsrrysrrr"/>
        <phase duration="33" state="srrrGGGgsrrrGGGg"/>
        <phase duration="3"  state="srrrsyygsrrrsyyg"/>
        <phase duration="6"  state="srrrsrrGsrrrsrrG"/>
        <phase duration="3"  state="srrrsrrysrrrsrry"/>
    </tlLogic>
    <tlLogic id="J1" type="static" programID="0" offset="0">
        <phase duration="33" state="GGGgsrrrGGGgsrrr"/>
        <phase duration="3"  state="syygsrrrsyygsrrr"/>