<?xml version="1.0" encoding="UTF-8"?>

<!-- generated on 2025-01-06 23:16:38.078465 by randomTrips.py v1_20_0+0002-343658e7c64
<configuration>
    <net-file value="5int.net.xml"/>
    <output-trip-file value="trips.trips.xml"/>
    <route-file value="5int_high.rou.xml"/>
    <trip-attributes value="departSpeed='max'"/>
    <fringe-factor value="max"/>
    <insertion-density value="200.0"/>
</configuration>
-->

<!-- generated on 2025-01-06 23:16:37 by Eclipse SUMO duarouter Version 1.20.0
<configuration xmlns:xsi="http://www.w3.org/2001/XMLSchema-instance" xsi:noNamespaceSchemaLocation="http://sumo.dlr.de/xsd/duarouterConfiguration.xsd">

    <input>
        <net-file value="5int.net.xml"/>
        <route-files value="trips.trips.xml"/>
    </input>

    <output>
        <output-file value="5int_high.rou.xml"/>
        <alternatives-output value="NUL"/>
    </output>

    <time>
        <begin value="0"/>
        <end value="3600"/>
    </time>

    <report>
        <no-warnings value="true"/>
        <ignore-errors value="true"/>
        <no-step-log value="true"/>
    </report>

</configuration>
-->

<routes xmlns:xsi="http://www.w3.org/2001/XMLSchema-instance" xsi:noNamespaceSchemaLocation="http://sumo.dlr.de/xsd/routes_file.xsd">
    <vehicle id="0" depart="0.00" departSpeed="max">
        <route edges="E5 E1 -E2 -E10"/>
    </vehicle>
    <vehicle id="1" depart="0.76" departSpeed="max">
        <route edges="E13 -E12"/>
    </vehicle>
    <vehicle id="3" depart="2.29" departSpeed="max">
        <route edges="E8 E2 -E3 -E11"/>
    </vehicle>
    <vehicle id="4" depart="3.05" departSpeed="max">
        <route edges="E15 E4 -E2 -E10"/>
    </vehicle>
    <vehicle id="5" depart="3.82" departSpeed="max">
        <route edges="E12 E3 -E4 -E16"/>
    </vehicle>
    <vehicle id="6" depart="4.58" departSpeed="max">
        <route edges="E10 E2 -E3 -E12"/>
    </vehicle>
    <vehicle id="7" depart="5.35" departSpeed="max">
        <route edges="E5 E1 -E4 -E16"/>
    </vehicle>
    <vehicle id="8" depart="6.11" departSpeed="max">
        <route edges="E12 E3 -E1 -E5"/>
    </vehicle>
    <vehicle id="9" depart="6.87" departSpeed="max">
        <route edges="E7 E1 -E2 -E10"/>
    </vehicle>
    <vehicle id="10" depart="7.64" departSpeed="max">
        <route edges="E7 -E6"/>
    </vehicle>
    <vehicle id="11" depart="8.40" departSpeed="max">
        <route edges="E14 E4 -E3 -E11"/>
    </vehicle>
    <vehicle id="12" depart="9.16" departSpeed="max">
        <route edges="E9 E2 -E4 -E14"/>
    </vehicle>
    <vehicle id="14" depart="10.69" departSpeed="max">
        <route edges="E8 E2 -E1 -E5"/>
    </vehicle>
    <vehicle id="15" depart="11.46" departSpeed="max">
        <route edges="E7 -E6"/>
    </vehicle>
    <vehicle id="16" depart="12.22" departSpeed="max">
        <route edges="E16 E4 -E2 -E9"/>
    </vehicle>
    <vehicle id="17" depart="12.98" departSpeed="max">
        <route edges="E14 -E16"/>
    </vehicle>
    <vehicle id="18" depart="13.75" departSpeed="max">
        <route edges="E7 -E5"/>
    </vehicle>
    <vehicle id="19" depart="14.51" departSpeed="max">
        <route edges="E8 E2 -E4 -E16"/>
    </vehicle>
    <vehicle id="20" depart="15.27" departSpeed="max">
        <route edges="E6 E1 -E2 -E10"/>
    </vehicle>
    <vehicle id="21" depart="16.04" departSpeed="max">
        <route edges="E12 -E13"/>
    </vehicle>
    <vehicle id="22" depart="16.80" departSpeed="max">
        <route edges="E10 E2 -E3 -E12"/>
    </vehicle>
    <vehicle id="23" depart="17.57" departSpeed="max">
        <route edges="E11 -E13"/>
    </vehicle>
    <vehicle id="24" depart="18.33" departSpeed="max">
        <route edges="E5 E1 -E4 -E14"/>
    </vehicle>
    <vehicle id="25" depart="19.09" departSpeed="max">
        <route edges="E14 E4 -E3 -E12"/>
    </vehicle>
    <vehicle id="26" depart="19.86" departSpeed="max">
        <route edges="E13 E3 -E2 -E9"/>
    </vehicle>
    <vehicle id="28" depart="21.38" departSpeed="max">
        <route edges="E12 E3 -E1 -E6"/>
    </vehicle>
    <vehicle id="29" depart="22.15" departSpeed="max">
        <route edges="E11 E3 -E4 -E14"/>
    </vehicle>
    <vehicle id="30" depart="22.91" departSpeed="max">
        <route edges="E9 E2 -E1 -E5"/>
    </vehicle>
    <vehicle id="31" depart="23.68" departSpeed="max">
        <route edges="E16 E4 -E1 -E6"/>
    </vehicle>
    <vehicle id="32" depart="24.44" departSpeed="max">
        <route edges="E8 E2 -E1 -E7"/>
    </vehicle>
    <vehicle id="33" depart="25.20" departSpeed="max">
        <route edges="E12 E3 -E2 -E10"/>
    </vehicle>
    <vehicle id="35" depart="26.73" departSpeed="max">
        <route edges="E12 E3 -E2 -E9"/>
    </vehicle>
    <vehicle id="36" depart="27.49" departSpeed="max">
        <route edges="E8 E2 -E3 -E13"/>
    </vehicle>
    <vehicle id="37" depart="28.26" departSpeed="max">
        <route edges="E5 E1 -E4 -E14"/>
    </vehicle>
    <vehicle id="38" depart="29.02" departSpeed="max">
        <route edges="E8 E2 -E4 -E15"/>
    </vehicle>
    <vehicle id="39" depart="29.79" departSpeed="max">
        <route edges="E13 -E12"/>
    </vehicle>
    <vehicle id="40" depart="30.55" departSpeed="max">
        <route edges="E16 E4 -E3 -E13"/>
    </vehicle>
    <vehicle id="41" depart="31.31" departSpeed="max">
        <route edges="E5 E1 -E2 -E8"/>
    </vehicle>
    <vehicle id="42" depart="32.08" departSpeed="max">
        <route edges="E14 E4 -E3 -E12"/>
    </vehicle>
    <vehicle id="43" depart="32.84" departSpeed="max">
        <route edges="E9 E2 -E4 -E16"/>
    </vehicle>
    <vehicle id="44" depart="33.60" departSpeed="max">
        <route edges="E11 E3 -E2 -E10"/>
    </vehicle>
    <vehicle id="45" depart="34.37" departSpeed="max">
        <route edges="E11 E3 -E1 -E5"/>
    </vehicle>
    <vehicle id="46" depart="35.13" departSpeed="max">
        <route edges="E7 E1 -E4 -E15"/>
    </vehicle>
    <vehicle id="47" depart="35.90" departSpeed="max">
        <route edges="E10 E2 -E4 -E14"/>
    </vehicle>
    <vehicle id="48" depart="36.66" departSpeed="max">
        <route edges="E9 E2 -E4 -E16"/>
    </vehicle>
    <vehicle id="49" depart="37.42" departSpeed="max">
        <route edges="E9 -E8"/>
    </vehicle>
    <vehicle id="50" depart="38.19" departSpeed="max">
        <route edges="E10 E2 -E1 -E6"/>
    </vehicle>
    <vehicle id="51" depart="38.95" departSpeed="max">
        <route edges="E6 E1 -E4 -E16"/>
    </vehicle>
    <vehicle id="52" depart="39.71" departSpeed="max">
        <route edges="E13 E3 -E1 -E5"/>
    </vehicle>
    <vehicle id="53" depart="40.48" departSpeed="max">
        <route edges="E11 E3 -E4 -E15"/>
    </vehicle>
    <vehicle id="54" depart="41.24" departSpeed="max">
        <route edges="E15 E4 -E2 -E9"/>
    </vehicle>
    <vehicle id="55" depart="42.01" departSpeed="max">
        <route edges="E8 E2 -E3 -E13"/>
    </vehicle>
    <vehicle id="56" depart="42.77" departSpeed="max">
        <route edges="E16 E4 -E3 -E12"/>
    </vehicle>
    <vehicle id="58" depart="44.30" departSpeed="max">
        <route edges="E13 E3 -E1 -E5"/>
    </vehicle>
    <vehicle id="59" depart="45.06" departSpeed="max">
        <route edges="E5 E1 -E3 -E11"/>
    </vehicle>
    <vehicle id="60" depart="45.82" departSpeed="max">
        <route edges="E7 E1 -E4 -E16"/>
    </vehicle>
    <vehicle id="61" depart="46.59" departSpeed="max">
        <route edges="E7 E1 -E4 -E16"/>
    </vehicle>
    <vehicle id="62" depart="47.35" departSpeed="max">
        <route edges="E10 E2 -E3 -E13"/>
    </vehicle>
    <vehicle id="63" depart="48.12" departSpeed="max">
        <route edges="E10 -E9"/>
    </vehicle>
    <vehicle id="64" depart="48.88" departSpeed="max">
        <route edges="E8 E2 -E1 -E7"/>
    </vehicle>
    <vehicle id="65" depart="49.64" departSpeed="max">
        <route edges="E13 E3 -E2 -E10"/>
    </vehicle>
    <vehicle id="66" depart="50.41" departSpeed="max">
        <route edges="E8 -E9"/>
    </vehicle>
    <vehicle id="67" depart="51.17" departSpeed="max">
        <route edges="E11 E3 -E4 -E15"/>
    </vehicle>
    <vehicle id="68" depart="51.93" departSpeed="max">
        <route edges="E10 E2 -E1 -E7"/>
    </vehicle>
    <vehicle id="69" depart="52.70" departSpeed="max">
        <route edges="E7 E1 -E3 -E11"/>
    </vehicle>
    <vehicle id="70" depart="53.46" departSpeed="max">
        <route edges="E15 -E16"/>
    </vehicle>
    <vehicle id="71" depart="54.23" departSpeed="max">
        <route edges="E13 E3 -E2 -E8"/>
    </vehicle>
    <vehicle id="72" depart="54.99" departSpeed="max">
        <route edges="E15 E4 -E3 -E12"/>
    </vehicle>
    <vehicle id="73" depart="55.75" departSpeed="max">
        <route edges="E16 E4 -E1 -E6"/>
    </vehicle>
    <vehicle id="74" depart="56.52" departSpeed="max">
        <route edges="E12 -E13"/>
    </vehicle>
    <vehicle id="75" depart="57.28" departSpeed="max">
        <route edges="E9 E2 -E1 -E5"/>
    </vehicle>
    <vehicle id="76" depart="58.04" departSpeed="max">
        <route edges="E15 -E16"/>
    </vehicle>
    <vehicle id="77" depart="58.81" departSpeed="max">
        <route edges="E11 -E12"/>
    </vehicle>
    <vehicle id="78" depart="59.57" departSpeed="max">
        <route edges="E14 E4 -E1 -E5"/>
    </vehicle>
    <vehicle id="80" depart="61.10" departSpeed="max">
        <route edges="E10 E2 -E1 -E5"/>
    </vehicle>
    <vehicle id="81" depart="61.86" departSpeed="max">
        <route edges="E12 E3 -E2 -E8"/>
    </vehicle>
    <vehicle id="82" depart="62.63" departSpeed="max">
        <route edges="E8 -E10"/>
    </vehicle>
    <vehicle id="83" depart="63.39" departSpeed="max">
        <route edges="E12 E3 -E1 -E6"/>
    </vehicle>
    <vehicle id="84" depart="64.15" departSpeed="max">
        <route edges="E12 -E11"/>
    </vehicle>
    <vehicle id="85" depart="64.92" departSpeed="max">
        <route edges="E9 E2 -E4 -E16"/>
    </vehicle>
    <vehicle id="86" depart="65.68" departSpeed="max">
        <route edges="E15 E4 -E1 -E7"/>
    </vehicle>
    <vehicle id="87" depart="66.45" departSpeed="max">
        <route edges="E7 E1 -E3 -E12"/>
    </vehicle>
    <vehicle id="88" depart="67.21" departSpeed="max">
        <route edges="E11 E3 -E4 -E15"/>
    </vehicle>
    <vehicle id="91" depart="69.50" departSpeed="max">
        <route edges="E9 E2 -E3 -E11"/>
    </vehicle>
    <vehicle id="93" depart="71.03" departSpeed="max">
        <route edges="E8 E2 -E3 -E12"/>
    </vehicle>
    <vehicle id="94" depart="71.79" departSpeed="max">
        <route edges="E12 E3 -E4 -E15"/>
    </vehicle>
    <vehicle id="95" depart="72.56" departSpeed="max">
        <route edges="E15 E4 -E3 -E13"/>
    </vehicle>
    <vehicle id="96" depart="73.32" departSpeed="max">
        <route edges="E12 E3 -E2 -E9"/>
    </vehicle>
    <vehicle id="97" depart="74.08" departSpeed="max">
        <route edges="E15 E4 -E2 -E8"/>
    </vehicle>
    <vehicle id="98" depart="74.85" departSpeed="max">
        <route edges="E16 E4 -E2 -E10"/>
    </vehicle>
    <vehicle id="99" depart="75.61" departSpeed="max">
        <route edges="E9 -E8"/>
    </vehicle>
    <vehicle id="101" depart="77.14" departSpeed="max">
        <route edges="E8 E2 -E3 -E11"/>
    </vehicle>
    <vehicle id="102" depart="77.90" departSpeed="max">
        <route edges="E15 E4 -E3 -E12"/>
    </vehicle>
    <vehicle id="103" depart="78.67" departSpeed="max">
        <route edges="E14 E4 -E2 -E10"/>
    </vehicle>
    <vehicle id="104" depart="79.43" departSpeed="max">
        <route edges="E14 E4 -E2 -E9"/>
    </vehicle>
    <vehicle id="105" depart="80.19" departSpeed="max">
        <route edges="E13 E3 -E1 -E7"/>
    </vehicle>
    <vehicle id="108" depart="82.48" departSpeed="max">
        <route edges="E16 E4 -E1 -E6"/>
    </vehicle>
    <vehicle id="109" depart="83.25" departSpeed="max">
        <route edges="E11 -E13"/>
    </vehicle>
    <vehicle id="110" depart="84.01" departSpeed="max">
        <route edges="E9 E2 -E4 -E16"/>
    </vehicle>
    <vehicle id="111" depart="84.78" departSpeed="max">
        <route edges="E16 E4 -E1 -E6"/>
    </vehicle>
    <vehicle id="112" depart="85.54" departSpeed="max">
        <route edges="E10 E2 -E1 -E5"/>
    </vehicle>
    <vehicle id="113" depart="86.30" departSpeed="max">
        <route edges="E16 E4 -E2 -E8"/>
    </vehicle>
    <vehicle id="114" depart="87.07" departSpeed="max">
        <route edges="E11 E3 -E2 -E9"/>
    </vehicle>
    <vehicle id="115" depart="87.83" departSpeed="max">
        <route edges="E10 E2 -E3 -E12"/>
    </vehicle>
    <vehicle id="116" depart="88.59" departSpeed="max">
        <route edges="E5 -E6"/>
    </vehicle>
    <vehicle id="117" depart="89.36" departSpeed="max">
        <route edges="E12 -E11"/>
    </vehicle>
    <vehicle id="118" depart="90.12" departSpeed="max">
        <route edges="E8 E2 -E3 -E12"/>
    </vehicle>
    <vehicle id="120" depart="91.65" departSpeed="max">
        <route edges="E15 E4 -E1 -E5"/>
    </vehicle>
    <vehicle id="121" depart="92.41" departSpeed="max">
        <route edges="E16 E4 -E2 -E9"/>
    </vehicle>
    <vehicle id="122" depart="93.18" departSpeed="max">
        <route edges="E12 E3 -E1 -E6"/>
    </vehicle>
    <vehicle id="123" depart="93.94" departSpeed="max">
        <route edges="E12 E3 -E4 -E14"/>
    </vehicle>
    <vehicle id="124" depart="94.70" departSpeed="max">
        <route edges="E6 E1 -E3 -E13"/>
    </vehicle>
    <vehicle id="125" depart="95.47" departSpeed="max">
        <route edges="E13 E3 -E1 -E7"/>
    </vehicle>
    <vehicle id="126" depart="96.23" departSpeed="max">
        <route edges="E10 E2 -E4 -E15"/>
    </vehicle>
    <vehicle id="128" depart="97.76" departSpeed="max">
        <route edges="E10 E2 -E3 -E12"/>
    </vehicle>
    <vehicle id="129" depart="98.52" departSpeed="max">
        <route edges="E13 E3 -E2 -E9"/>
    </vehicle>
    <vehicle id="131" depart="100.05" departSpeed="max">
        <route edges="E14 E4 -E3 -E11"/>
    </vehicle>
    <vehicle id="132" depart="100.81" departSpeed="max">
        <route edges="E8 E2 -E1 -E6"/>
    </vehicle>
    <vehicle id="133" depart="101.58" departSpeed="max">
        <route edges="E5 E1 -E2 -E9"/>
    </vehicle>
    <vehicle id="134" depart="102.34" departSpeed="max">
        <route edges="E5 E1 -E2 -E10"/>
    </vehicle>
    <vehicle id="135" depart="103.11" departSpeed="max">
        <route edges="E7 E1 -E3 -E13"/>
    </vehicle>
    <vehicle id="136" depart="103.87" departSpeed="max">
        <route edges="E5 E1 -E2 -E9"/>
    </vehicle>
    <vehicle id="138" depart="105.40" departSpeed="max">
        <route edges="E11 E3 -E4 -E16"/>
    </vehicle>
    <vehicle id="139" depart="106.16" departSpeed="max">
        <route edges="E13 E3 -E1 -E5"/>
    </vehicle>
    <vehicle id="140" depart="106.92" departSpeed="max">
        <route edges="E6 E1 -E3 -E12"/>
    </vehicle>
    <vehicle id="141" depart="107.69" departSpeed="max">
        <route edges="E5 E1 -E3 -E13"/>
    </vehicle>
    <vehicle id="142" depart="108.45" departSpeed="max">
        <route edges="E15 E4 -E2 -E8"/>
    </vehicle>
    <vehicle id="143" depart="109.22" departSpeed="max">
        <route edges="E8 E2 -E3 -E11"/>
    </vehicle>
    <vehicle id="144" depart="109.98" departSpeed="max">
        <route edges="E15 E4 -E3 -E13"/>
    </vehicle>
    <vehicle id="145" depart="110.74" departSpeed="max">
        <route edges="E10 E2 -E1 -E7"/>
    </vehicle>
    <vehicle id="146" depart="111.51" departSpeed="max">
        <route edges="E5 E1 -E3 -E13"/>
    </vehicle>
    <vehicle id="147" depart="112.27" departSpeed="max">
        <route edges="E6 E1 -E4 -E16"/>
    </vehicle>
    <vehicle id="148" depart="113.03" departSpeed="max">
        <route edges="E15 E4 -E2 -E10"/>
    </vehicle>
    <vehicle id="149" depart="113.80" departSpeed="max">
        <route edges="E10 -E8"/>
    </vehicle>
    <vehicle id="150" depart="114.56" departSpeed="max">
        <route edges="E8 E2 -E4 -E16"/>
    </vehicle>
    <vehicle id="151" depart="115.33" departSpeed="max">
        <route edges="E8 E2 -E4 -E16"/>
    </vehicle>
    <vehicle id="153" depart="116.85" departSpeed="max">
        <route edges="E13 E3 -E2 -E8"/>
    </vehicle>
    <vehicle id="154" depart="117.62" departSpeed="max">
        <route edges="E7 E1 -E2 -E8"/>
    </vehicle>
    <vehicle id="155" depart="118.38" departSpeed="max">
        <route edges="E8 E2 -E3 -E12"/>
    </vehicle>
    <vehicle id="156" depart="119.14" departSpeed="max">
        <route edges="E12 -E11"/>
    </vehicle>
    <vehicle id="157" depart="119.91" departSpeed="max">
        <route edges="E7 E1 -E2 -E8"/>
    </vehicle>
    <vehicle id="158" depart="120.67" departSpeed="max">
        <route edges="E14 E4 -E1 -E5"/>
    </vehicle>
    <vehicle id="159" depart="121.44" departSpeed="max">
        <route edges="E11 E3 -E2 -E9"/>
    </vehicle>
    <vehicle id="160" depart="122.20" departSpeed="max">
        <route edges="E8 -E9"/>
    </vehicle>
    <vehicle id="161" depart="122.96" departSpeed="max">
        <route edges="E7 E1 -E2 -E8"/>
    </vehicle>
    <vehicle id="162" depart="123.73" departSpeed="max">
        <route edges="E10 E2 -E1 -E6"/>
    </vehicle>
    <vehicle id="163" depart="124.49" departSpeed="max">
        <route edges="E13 E3 -E2 -E9"/>
    </vehicle>
    <vehicle id="164" depart="125.25" departSpeed="max">
        <route edges="E7 E1 -E2 -E8"/>
    </vehicle>
    <vehicle id="165" depart="126.02" departSpeed="max">
        <route edges="E7 E1 -E3 -E13"/>
    </vehicle>
    <vehicle id="166" depart="126.78" departSpeed="max">
        <route edges="E7 E1 -E3 -E11"/>
    </vehicle>
    <vehicle id="168" depart="128.31" departSpeed="max">
        <route edges="E12 E3 -E1 -E7"/>
    </vehicle>
    <vehicle id="169" depart="129.07" departSpeed="max">
        <route edges="E15 E4 -E3 -E13"/>
    </vehicle>
    <vehicle id="170" depart="129.84" departSpeed="max">
        <route edges="E7 E1 -E3 -E12"/>
    </vehicle>
    <vehicle id="171" depart="130.60" departSpeed="max">
        <route edges="E10 E2 -E3 -E12"/>
    </vehicle>
    <vehicle id="172" depart="131.36" departSpeed="max">
        <route edges="E13 E3 -E2 -E8"/>
    </vehicle>
    <vehicle id="173" depart="132.13" departSpeed="max">
        <route edges="E9 E2 -E3 -E13"/>
    </vehicle>
    <vehicle id="174" depart="132.89" departSpeed="max">
        <route edges="E5 E1 -E4 -E14"/>
    </vehicle>
    <vehicle id="175" depart="133.66" departSpeed="max">
        <route edges="E9 E2 -E4 -E16"/>
    </vehicle>
    <vehicle id="176" depart="134.42" departSpeed="max">
        <route edges="E9 E2 -E3 -E11"/>
    </vehicle>
    <vehicle id="177" depart="135.18" departSpeed="max">
        <route edges="E9 E2 -E3 -E12"/>
    </vehicle>
    <vehicle id="178" depart="135.95" departSpeed="max">
        <route edges="E9 E2 -E3 -E13"/>
    </vehicle>
    <vehicle id="179" depart="136.71" departSpeed="max">
        <route edges="E11 E3 -E4 -E15"/>
    </vehicle>
    <vehicle id="180" depart="137.47" departSpeed="max">
        <route edges="E6 E1 -E3 -E13"/>
    </vehicle>
    <vehicle id="181" depart="138.24" departSpeed="max">
        <route edges="E5 E1 -E4 -E16"/>
    </vehicle>
    <vehicle id="182" depart="139.00" departSpeed="max">
        <route edges="E14 -E16"/>
    </vehicle>
    <vehicle id="183" depart="139.77" departSpeed="max">
        <route edges="E13 E3 -E1 -E6"/>
    </vehicle>
    <vehicle id="184" depart="140.53" departSpeed="max">
        <route edges="E10 -E9"/>
    </vehicle>
    <vehicle id="185" depart="141.29" departSpeed="max">
        <route edges="E16 E4 -E1 -E6"/>
    </vehicle>
    <vehicle id="187" depart="142.82" departSpeed="max">
        <route edges="E14 E4 -E2 -E10"/>
    </vehicle>
    <vehicle id="188" depart="143.58" departSpeed="max">
        <route edges="E5 E1 -E3 -E13"/>
    </vehicle>
    <vehicle id="189" depart="144.35" departSpeed="max">
        <route edges="E13 E3 -E2 -E8"/>
    </vehicle>
    <vehicle id="190" depart="145.11" departSpeed="max">
        <route edges="E6 E1 -E3 -E13"/>
    </vehicle>
    <vehicle id="191" depart="145.88" departSpeed="max">
        <route edges="E13 E3 -E4 -E14"/>
    </vehicle>
    <vehicle id="192" depart="146.64" departSpeed="max">
        <route edges="E14 E4 -E3 -E13"/>
    </vehicle>
    <vehicle id="193" depart="147.40" departSpeed="max">
        <route edges="E11 E3 -E4 -E15"/>
    </vehicle>
    <vehicle id="194" depart="148.17" departSpeed="max">
        <route edges="E9 E2 -E1 -E6"/>
    </vehicle>
    <vehicle id="195" depart="148.93" departSpeed="max">
        <route edges="E8 E2 -E1 -E5"/>
    </vehicle>
    <vehicle id="196" depart="149.69" departSpeed="max">
        <route edges="E13 E3 -E4 -E16"/>
    </vehicle>
    <vehicle id="197" depart="150.46" departSpeed="max">
        <route edges="E10 E2 -E3 -E13"/>
    </vehicle>
    <vehicle id="198" depart="151.22" departSpeed="max">
        <route edges="E15 -E16"/>
    </vehicle>
    <vehicle id="199" depart="151.99" departSpeed="max">
        <route edges="E5 E1 -E4 -E15"/>
    </vehicle>
    <vehicle id="200" depart="152.75" departSpeed="max">
        <route edges="E15 E4 -E3 -E12"/>
    </vehicle>
    <vehicle id="201" depart="153.51" departSpeed="max">
        <route edges="E15 E4 -E2 -E8"/>
    </vehicle>
    <vehicle id="202" depart="154.28" departSpeed="max">
        <route edges="E7 E1 -E3 -E12"/>
    </vehicle>
    <vehicle id="203" depart="155.04" departSpeed="max">
        <route edges="E11 E3 -E4 -E16"/>
    </vehicle>
    <vehicle id="204" depart="155.80" departSpeed="max">
        <route edges="E5 E1 -E4 -E14"/>
    </vehicle>
    <vehicle id="206" depart="157.33" departSpeed="max">
        <route edges="E6 E1 -E3 -E12"/>
    </vehicle>
    <vehicle id="207" depart="158.10" departSpeed="max">
        <route edges="E12 E3 -E2 -E10"/>
    </vehicle>
    <vehicle id="208" depart="158.86" departSpeed="max">
        <route edges="E12 E3 -E4 -E15"/>
    </vehicle>
    <vehicle id="209" depart="159.62" departSpeed="max">
        <route edges="E8 -E10"/>
    </vehicle>
    <vehicle id="210" depart="160.39" departSpeed="max">
        <route edges="E14 E4 -E1 -E5"/>
    </vehicle>
    <vehicle id="211" depart="161.15" departSpeed="max">
        <route edges="E12 E3 -E1 -E6"/>
    </vehicle>
    <vehicle id="212" depart="161.91" departSpeed="max">
        <route edges="E15 E4 -E3 -E12"/>
    </vehicle>
    <vehicle id="213" depart="162.68" departSpeed="max">
        <route edges="E5 E1 -E2 -E10"/>
    </vehicle>
    <vehicle id="215" depart="164.21" departSpeed="max">
        <route edges="E11 E3 -E4 -E15"/>
    </vehicle>
    <vehicle id="216" depart="164.97" departSpeed="max">
        <route edges="E12 E3 -E2 -E9"/>
    </vehicle>
    <vehicle id="217" depart="165.73" departSpeed="max">
        <route edges="E16 E4 -E2 -E10"/>
    </vehicle>
    <vehicle id="218" depart="166.50" departSpeed="max">
        <route edges="E12 E3 -E2 -E8"/>
    </vehicle>
    <vehicle id="219" depart="167.26" departSpeed="max">
        <route edges="E15 E4 -E1 -E7"/>
    </vehicle>
    <vehicle id="220" depart="168.02" departSpeed="max">
        <route edges="E6 E1 -E2 -E9"/>
    </vehicle>
    <vehicle id="221" depart="168.79" departSpeed="max">
        <route edges="E5 E1 -E2 -E9"/>
    </vehicle>
    <vehicle id="222" depart="169.55" departSpeed="max">
        <route edges="E8 E2 -E1 -E5"/>
    </vehicle>
    <vehicle id="223" depart="170.32" departSpeed="max">
        <route edges="E6 E1 -E4 -E16"/>
    </vehicle>
    <vehicle id="224" depart="171.08" departSpeed="max">
        <route edges="E7 E1 -E4 -E16"/>
    </vehicle>
    <vehicle id="225" depart="171.84" departSpeed="max">
        <route edges="E8 E2 -E1 -E6"/>
    </vehicle>
    <vehicle id="226" depart="172.61" departSpeed="max">
        <route edges="E15 E4 -E3 -E13"/>
    </vehicle>
    <vehicle id="227" depart="173.37" departSpeed="max">
        <route edges="E12 E3 -E1 -E5"/>
    </vehicle>
    <vehicle id="228" depart="174.13" departSpeed="max">
        <route edges="E7 E1 -E4 -E16"/>
    </vehicle>
    <vehicle id="229" depart="174.90" departSpeed="max">
        <route edges="E5 E1 -E3 -E13"/>
    </vehicle>
    <vehicle id="230" depart="175.66" departSpeed="max">
        <route edges="E10 E2 -E3 -E13"/>
    </vehicle>
    <vehicle id="232" depart="177.19" departSpeed="max">
        <route edges="E16 E4 -E3 -E11"/>
    </vehicle>
    <vehicle id="233" depart="177.95" departSpeed="max">
        <route edges="E12 E3 -E1 -E6"/>
    </vehicle>
    <vehicle id="234" depart="178.72" departSpeed="max">
        <route edges="E6 E1 -E2 -E10"/>
    </vehicle>
    <vehicle id="235" depart="179.48" departSpeed="max">
        <route edges="E14 -E16"/>
    </vehicle>
    <vehicle id="236" depart="180.24" departSpeed="max">
        <route edges="E14 E4 -E3 -E12"/>
    </vehicle>
    <vehicle id="237" depart="181.01" departSpeed="max">
        <route edges="E15 E4 -E2 -E8"/>
    </vehicle>
    <vehicle id="238" depart="181.77" departSpeed="max">
        <route edges="E5 -E6"/>
    </vehicle>
    <vehicle id="239" depart="182.54" departSpeed="max">
        <route edges="E8 E2 -E1 -E7"/>
    </vehicle>
    <vehicle id="240" depart="183.30" departSpeed="max">
        <route edges="E14 E4 -E2 -E10"/>
    </vehicle>
    <vehicle id="241" depart="184.06" departSpeed="max">
        <route edges="E14 E4 -E1 -E7"/>
    </vehicle>
    <vehicle id="242" depart="184.83" departSpeed="max">
        <route edges="E8 -E9"/>
    </vehicle>
    <vehicle id="243" depart="185.59" departSpeed="max">
        <route edges="E15 E4 -E1 -E6"/>
    </vehicle>
    <vehicle id="244" depart="186.35" departSpeed="max">
        <route edges="E16 E4 -E1 -E5"/>
    </vehicle>
    <vehicle id="246" depart="187.88" departSpeed="max">
        <route edges="E15 E4 -E2 -E10"/>
    </vehicle>
    <vehicle id="247" depart="188.65" departSpeed="max">
        <route edges="E14 E4 -E1 -E6"/>
    </vehicle>
    <vehicle id="248" depart="189.41" departSpeed="max">
        <route edges="E14 E4 -E3 -E11"/>
    </vehicle>
    <vehicle id="249" depart="190.17" departSpeed="max">
        <route edges="E15 E4 -E3 -E11"/>
    </vehicle>
    <vehicle id="250" depart="190.94" departSpeed="max">
        <route edges="E5 E1 -E2 -E10"/>
    </vehicle>
    <vehicle id="251" depart="191.70" departSpeed="max">
        <route edges="E14 -E16"/>
    </vehicle>
    <vehicle id="252" depart="192.46" departSpeed="max">
        <route edges="E10 E2 -E1 -E5"/>
    </vehicle>
    <vehicle id="253" depart="193.23" departSpeed="max">
        <route edges="E11 E3 -E4 -E15"/>
    </vehicle>
    <vehicle id="254" depart="193.99" departSpeed="max">
        <route edges="E10 E2 -E4 -E14"/>
    </vehicle>
    <vehicle id="255" depart="194.76" departSpeed="max">
        <route edges="E12 -E13"/>
    </vehicle>
    <vehicle id="256" depart="195.52" departSpeed="max">
        <route edges="E7 E1 -E4 -E14"/>
    </vehicle>
    <vehicle id="258" depart="197.05" departSpeed="max">
        <route edges="E13 E3 -E2 -E10"/>
    </vehicle>
    <vehicle id="259" depart="197.81" departSpeed="max">
        <route edges="E10 E2 -E4 -E16"/>
    </vehicle>
    <vehicle id="260" depart="198.57" departSpeed="max">
        <route edges="E9 E2 -E4 -E14"/>
    </vehicle>
    <vehicle id="261" depart="199.34" departSpeed="max">
        <route edges="E5 -E7"/>
    </vehicle>
    <vehicle id="262" depart="200.10" departSpeed="max">
        <route edges="E5 -E7"/>
    </vehicle>
    <vehicle id="263" depart="200.87" departSpeed="max">
        <route edges="E9 E2 -E3 -E12"/>
    </vehicle>
    <vehicle id="264" depart="201.63" departSpeed="max">
        <route edges="E10 E2 -E3 -E11"/>
    </vehicle>
    <vehicle id="265" depart="202.39" departSpeed="max">
        <route edges="E11 E3 -E1 -E6"/>
    </vehicle>
    <vehicle id="266" depart="203.16" departSpeed="max">
        <route edges="E16 E4 -E3 -E12"/>
    </vehicle>
    <vehicle id="267" depart="203.92" departSpeed="max">
        <route edges="E6 -E7"/>
    </vehicle>
    <vehicle id="268" depart="204.68" departSpeed="max">
        <route edges="E12 E3 -E1 -E5"/>
    </vehicle>
    <vehicle id="269" depart="205.45" departSpeed="max">
        <route edges="E6 E1 -E3 -E11"/>
    </vehicle>
    <vehicle id="270" depart="206.21" departSpeed="max">
        <route edges="E7 E1 -E2 -E9"/>
    </vehicle>
    <vehicle id="271" depart="206.98" departSpeed="max">
        <route edges="E11 E3 -E2 -E10"/>
    </vehicle>
    <vehicle id="272" depart="207.74" departSpeed="max">
        <route edges="E13 E3 -E1 -E6"/>
    </vehicle>
    <vehicle id="273" depart="208.50" departSpeed="max">
        <route edges="E9 E2 -E4 -E14"/>
    </vehicle>
    <vehicle id="274" depart="209.27" departSpeed="max">
        <route edges="E6 E1 -E2 -E10"/>
    </vehicle>
    <vehicle id="275" depart="210.03" departSpeed="max">
        <route edges="E6 -E5"/>
    </vehicle>
    <vehicle id="276" depart="210.79" departSpeed="max">
        <route edges="E11 E3 -E1 -E7"/>
    </vehicle>
    <vehicle id="277" depart="211.56" departSpeed="max">
        <route edges="E8 E2 -E1 -E5"/>
    </vehicle>
    <vehicle id="278" depart="212.32" departSpeed="max">
        <route edges="E11 E3 -E2 -E9"/>
    </vehicle>
    <vehicle id="279" depart="213.09" departSpeed="max">
        <route edges="E7 E1 -E4 -E14"/>
    </vehicle>
    <vehicle id="280" depart="213.85" departSpeed="max">
        <route edges="E15 -E14"/>
    </vehicle>
    <vehicle id="281" depart="214.61" departSpeed="max">
        <route edges="E16 -E14"/>
    </vehicle>
    <vehicle id="282" depart="215.38" departSpeed="max">
        <route edges="E8 E2 -E1 -E7"/>
    </vehicle>
    <vehicle id="283" depart="216.14" departSpeed="max">
        <route edges="E11 E3 -E2 -E9"/>
    </vehicle>
    <vehicle id="284" depart="216.90" departSpeed="max">