<?xml version="1.0" encoding="UTF-8"?>

<!-- generated on 2025-01-31 03:37:42.495293 by randomTrips.py v1_20_0+0002-343658e7c64
<configuration>
    <net-file value="3x3.net.xml"/>
    <output-trip-file value="trips.trips.xml"/>
    <route-file value="3x3_medium.rou.xml"/>
    <trip-attributes value="departSpeed='max'"/>
    <random-factor value="1.5"/>
    <fringe-factor value="max"/>
    <insertion-density value="120.0"/>
    <random-depart value="True"/>
</configuration>
-->

<!-- generated on 2025-01-31 03:37:42 by Eclipse SUMO duarouter Version 1.20.0
<configuration xmlns:xsi="http://www.w3.org/2001/XMLSchema-instance" xsi:noNamespaceSchemaLocation="http://sumo.dlr.de/xsd/duarouterConfiguration.xsd">

    <input>
        <net-file value="3x3.net.xml"/>
        <route-files value="trips.trips.xml"/>
    </input>

    <output>
        <output-file value="3x3_medium.rou.xml"/>
        <alternatives-output value="NUL"/>
    </output>

    <time>
        <begin value="0"/>
        <end value="3600.0"/>
    </time>

    <report>
        <no-warnings value="true"/>
        <ignore-errors value="true"/>
        <no-step-log value="true"/>
    </report>

</configuration>
-->

<routes xmlns:xsi="http://www.w3.org/2001/XMLSchema-instance" xsi:noNamespaceSchemaLocation="http://sumo.dlr.de/xsd/routes_file.xsd">
    <vehicle id="0" depart="0.97" departSpeed="max">
        <route edges="E01_11 E11_21 E21_22 E22_32 E32_33 E33_43"/>
    </vehicle>
    <vehicle id="1" depart="2.44" departSpeed="max">
        <route edges="E34_33 E33_32 E32_31 E31_30"/>
    </vehicle>
    <vehicle id="2" depart="2.86" departSpeed="max">
        <route edges="E10_11 E11_21 E21_31 E31_41"/>
    </vehicle>
    <vehicle id="3" depart="3.75" departSpeed="max">
        <route edges="E41_31 E31_21 E21_20"/>
    </vehicle>
    <vehicle id="4" depart="3.92" departSpeed="max">
        <route edges="E02_12 E12_11 E11_10"/>
    </vehicle>
    <vehicle id="5" depart="4.59" departSpeed="max">
        <route edges="E10_11 E11_21 E21_20"/>
    </vehicle>
    <vehicle id="6" depart="5.79" departSpeed="max">
        <route edges="E03_13 E13_12 E12_02"/>
    </vehicle>
    <vehicle id="7" depart="5.81" departSpeed="max">
        <route edges="E30_31 E31_21 E21_22 E22_32 E32_31 E31_30"/>
    </vehicle>
    <vehicle id="8" depart="6.34" departSpeed="max">
        <route edges="E34_33 E33_32 E32_31 E31_30"/>
    </vehicle>
    <vehicle id="9" depart="7.20" departSpeed="max">
        <route edges="E01_11 E11_21 E21_22 E22_32 E32_42"/>
    </vehicle>
    <vehicle id="10" depart="8.43" departSpeed="max">
        <route edges="E10_11 E11_12 E12_13 E13_14"/>
    </vehicle>
    <vehicle id="11" depart="8.67" departSpeed="max">
        <route edges="E24_23 E23_13 E13_12 E12_02"/>
    </vehicle>
    <vehicle id="12" depart="10.12" departSpeed="max">
        <route edges="E43_33 E33_32 E32_22 E22_23 E23_33 E33_43"/>
    </vehicle>
    <vehicle id="13" depart="10.57" departSpeed="max">
        <route edges="E30_31 E31_32 E32_33 E33_34"/>
    </vehicle>
    <vehicle id="14" depart="10.85" departSpeed="max">
        <route edges="E43_33 E33_23 E23_24"/>
    </vehicle>
    <vehicle id="15" depart="12.57" departSpeed="max">
        <route edges="E20_21 E21_31 E31_30"/>
    </vehicle>
    <vehicle id="16" depart="13.81" departSpeed="max">
        <route edges="E03_13 E13_12 E12_11 E11_01"/>
    </vehicle>
    <vehicle id="17" depart="15.93" departSpeed="max">
        <route edges="E02_12 E12_11 E11_10"/>
    </vehicle>
    <vehicle id="18" depart="16.96" departSpeed="max">
        <route edges="E41_31 E31_32 E32_33 E33_34"/>
    </vehicle>
    <vehicle id="19" depart="18.39" departSpeed="max">
        <route edges="E24_23 E23_13 E13_12 E12_11 E11_10"/>
    </vehicle>
    <vehicle id="20" depart="19.20" departSpeed="max">
        <route edges="E43_33 E33_23 E23_22 E22_12 E12_11 E11_01"/>
    </vehicle>
    <vehicle id="21" depart="19.23" departSpeed="max">
        <route edges="E14_13 E13_12 E12_02"/>
    </vehicle>
    <vehicle id="22" depart="19.75" departSpeed="max">
        <route edges="E10_11 E11_21 E21_31 E31_30"/>
    </vehicle>
    <vehicle id="23" depart="21.33" departSpeed="max">
        <route edges="E42_32 E32_31 E31_21 E21_20"/>
    </vehicle>
    <vehicle id="24" depart="21.48" departSpeed="max">
        <route edges="E02_12 E12_11 E11_01"/>
    </vehicle>
    <vehicle id="25" depart="22.22" departSpeed="max">
        <route edges="E24_23 E23_13 E13_12 E12_11 E11_10"/>
    </vehicle>
    <vehicle id="26" depart="22.81" departSpeed="max">
        <route edges="E01_11 E11_12 E12_13 E13_23 E23_24"/>
    </vehicle>
    <vehicle id="27" depart="23.14" departSpeed="max">
        <route edges="E01_11 E11_12 E12_02"/>
    </vehicle>
    <vehicle id="28" depart="23.33" departSpeed="max">
        <route edges="E20_21 E21_22 E22_23 E23_24"/>
    </vehicle>
    <vehicle id="29" depart="24.41" departSpeed="max">
        <route edges="E20_21 E21_31 E31_41"/>
    </vehicle>
    <vehicle id="30" depart="24.96" departSpeed="max">
        <route edges="E42_32 E32_22 E22_12 E12_02"/>
    </vehicle>
    <vehicle id="31" depart="25.22" departSpeed="max">
        <route edges="E02_12 E12_22 E22_21 E21_11 E11_12 E12_02"/>
    </vehicle>
    <vehicle id="32" depart="25.62" departSpeed="max">
        <route edges="E03_13 E13_14"/>
    </vehicle>
    <vehicle id="33" depart="26.04" departSpeed="max">
        <route edges="E03_13 E13_23 E23_33 E33_34"/>
    </vehicle>
    <vehicle id="34" depart="26.49" departSpeed="max">
        <route edges="E01_11 E11_12 E12_13 E13_23 E23_24"/>
    </vehicle>
    <vehicle id="35" depart="26.60" departSpeed="max">
        <route edges="E01_11 E11_21 E21_20"/>
    </vehicle>
    <vehicle id="36" depart="27.21" departSpeed="max">
        <route edges="E03_13 E13_12 E12_22 E22_21 E21_31 E31_30"/>
    </vehicle>
    <vehicle id="37" depart="27.60" departSpeed="max">
        <route edges="E03_13 E13_14"/>
    </vehicle>
    <vehicle id="38" depart="27.78" departSpeed="max">
        <route edges="E20_21 E21_11 E11_12 E12_02"/>
    </vehicle>
    <vehicle id="39" depart="29.68" departSpeed="max">
        <route edges="E14_13 E13_03"/>
    </vehicle>
    <vehicle id="40" depart="30.01" departSpeed="max">
        <route edges="E14_13 E13_12 E12_11 E11_01"/>
    </vehicle>
    <vehicle id="41" depart="30.68" departSpeed="max">
        <route edges="E24_23 E23_13 E13_03"/>
    </vehicle>
    <vehicle id="42" depart="30.70" departSpeed="max">
        <route edges="E02_12 E12_11 E11_21 E21_20"/>
    </vehicle>
    <vehicle id="43" depart="31.66" departSpeed="max">
        <route edges="E20_21 E21_31 E31_41"/>
    </vehicle>
    <vehicle id="44" depart="32.88" departSpeed="max">
        <route edges="E03_13 E13_23 E23_22 E22_12 E12_13 E13_03"/>
    </vehicle>
    <vehicle id="45" depart="33.09" departSpeed="max">
        <route edges="E02_12 E12_22 E22_32 E32_42"/>
    </vehicle>
    <vehicle id="46" depart="33.76" departSpeed="max">
        <route edges="E43_33 E33_34"/>
    </vehicle>
    <vehicle id="47" depart="33.82" departSpeed="max">
        <route edges="E24_23 E23_22 E22_12 E12_13 E13_23 E23_24"/>
    </vehicle>
    <vehicle id="48" depart="34.04" departSpeed="max">
        <route edges="E03_13 E13_14"/>
    </vehicle>
    <vehicle id="49" depart="34.52" departSpeed="max">
        <route edges="E24_23 E23_33 E33_34"/>
    </vehicle>
    <vehicle id="50" depart="34.77" departSpeed="max">
        <route edges="E03_13 E13_12 E12_22 E22_21 E21_20"/>
    </vehicle>
    <vehicle id="51" depart="37.88" departSpeed="max">
        <route edges="E20_21 E21_11 E11_01"/>
    </vehicle>
    <vehicle id="52" depart="38.14" departSpeed="max">
        <route edges="E20_21 E21_31 E31_32 E32_33 E33_34"/>
    </vehicle>
    <vehicle id="53" depart="38.58" departSpeed="max">
        <route edges="E10_11 E11_21 E21_20"/>
    </vehicle>
    <vehicle id="54" depart="38.72" departSpeed="max">
        <route edges="E03_13 E13_23 E23_33 E33_43"/>
    </vehicle>
    <vehicle id="55" depart="39.26" departSpeed="max">
        <route edges="E43_33 E33_32 E32_22 E22_23 E23_33 E33_43"/>
    </vehicle>
    <vehicle id="56" depart="39.29" departSpeed="max">
        <route edges="E42_32 E32_33 E33_23 E23_13 E13_14"/>
    </vehicle>
    <vehicle id="57" depart="39.70" departSpeed="max">
        <route edges="E01_11 E11_21 E21_22 E22_32 E32_33 E33_43"/>
    </vehicle>
    <vehicle id="58" depart="43.00" departSpeed="max">
        <route edges="E34_33 E33_23 E23_24"/>
    </vehicle>
    <vehicle id="59" depart="43.23" departSpeed="max">
        <route edges="E20_21 E21_22 E22_12 E12_13 E13_14"/>
    </vehicle>
    <vehicle id="60" depart="44.62" departSpeed="max">
        <route edges="E41_31 E31_21 E21_22 E22_32 E32_31 E31_41"/>
    </vehicle>
    <vehicle id="61" depart="45.17" departSpeed="max">
        <route edges="E02_12 E12_13 E13_23 E23_24"/>
    </vehicle>
    <vehicle id="62" depart="46.02" departSpeed="max">
        <route edges="E01_11 E11_21 E21_31 E31_41"/>
    </vehicle>
    <vehicle id="63" depart="46.43" departSpeed="max">
        <route edges="E34_33 E33_23 E23_13 E13_14"/>
    </vehicle>
    <vehicle id="64" depart="47.37" departSpeed="max">
        <route edges="E03_13 E13_14"/>
    </vehicle>
    <vehicle id="65" depart="48.67" departSpeed="max">
        <route edges="E03_13 E13_23 E23_33 E33_43"/>
    </vehicle>
    <vehicle id="66" depart="48.77" departSpeed="max">
        <route edges="E01_11 E11_21 E21_31 E31_41"/>
    </vehicle>
    <vehicle id="67" depart="50.01" departSpeed="max">
        <route edges="E02_12 E12_11 E11_21 E21_20"/>
    </vehicle>
    <vehicle id="68" depart="50.41" departSpeed="max">
        <route edges="E24_23 E23_22 E22_12 E12_13 E13_23 E23_24"/>
    </vehicle>
    <vehicle id="69" depart="50.65" departSpeed="max">
        <route edges="E43_33 E33_32 E32_31 E31_21 E21_20"/>
    </vehicle>
    <vehicle id="70" depart="50.86" departSpeed="max">
        <route edges="E02_12 E12_11 E11_21 E21_31 E31_41"/>
    </vehicle>
    <vehicle id="71" depart="51.24" departSpeed="max">
        <route edges="E03_13 E13_23 E23_33 E33_34"/>
    </vehicle>
    <vehicle id="72" depart="52.80" departSpeed="max">
        <route edges="E30_31 E31_41"/>
    </vehicle>
    <vehicle id="73" depart="56.63" departSpeed="max">
        <route edges="E01_11 E11_21 E21_31 E31_30"/>
    </vehicle>
    <vehicle id="74" depart="57.80" departSpeed="max">
        <route edges="E14_13 E13_23 E23_22 E22_32 E32_31 E31_41"/>
    </vehicle>
    <vehicle id="75" depart="57.82" departSpeed="max">
        <route edges="E24_23 E23_13 E13_03"/>
    </vehicle>
    <vehicle id="76" depart="58.16" departSpeed="max">
        <route edges="E34_33 E33_32 E32_31 E31_41"/>
    </vehicle>
    <vehicle id="77" depart="58.30" departSpeed="max">
        <route edges="E30_31 E31_32 E32_22 E22_23 E23_24"/>
    </vehicle>
    <vehicle id="78" depart="60.87" departSpeed="max">
        <route edges="E03_13 E13_12 E12_22 E22_32 E32_31 E31_41"/>
    </vehicle>
    <vehicle id="79" depart="61.35" departSpeed="max">
        <route edges="E30_31 E31_21 E21_22 E22_12 E12_13 E13_03"/>
    </vehicle>
    <vehicle id="80" depart="61.40" departSpeed="max">
        <route edges="E43_33 E33_23 E23_24"/>
    </vehicle>
    <vehicle id="81" depart="62.01" departSpeed="max">
        <route edges="E42_32 E32_33 E33_23 E23_13 E13_14"/>
    </vehicle>
    <vehicle id="82" depart="62.75" departSpeed="max">
        <route edges="E01_11 E11_12 E12_13 E13_14"/>
    </vehicle>
    <vehicle id="83" depart="62.78" departSpeed="max">
        <route edges="E20_21 E21_11 E11_01"/>
    </vehicle>
    <vehicle id="84" depart="62.79" departSpeed="max">
        <route edges="E14_13 E13_12 E12_22 E22_21 E21_31 E31_30"/>
    </vehicle>
    <vehicle id="85" depart="64.26" departSpeed="max">
        <route edges="E34_33 E33_23 E23_24"/>
    </vehicle>
    <vehicle id="86" depart="64.75" departSpeed="max">
        <route edges="E41_31 E31_21 E21_11 E11_10"/>
    </vehicle>
    <vehicle id="87" depart="64.86" departSpeed="max">
        <route edges="E14_13 E13_23 E23_24"/>
    </vehicle>
    <vehicle id="88" depart="64.87" departSpeed="max">
        <route edges="E30_31 E31_41"/>
    </vehicle>
    <vehicle id="89" depart="64.94" departSpeed="max">
        <route edges="E34_33 E33_32 E32_22 E22_23 E23_33 E33_34"/>
    </vehicle>
    <vehicle id="90" depart="66.35" departSpeed="max">
        <route edges="E34_33 E33_32 E32_31 E31_41"/>
    </vehicle>
    <vehicle id="91" depart="66.52" departSpeed="max">
        <route edges="E34_33 E33_23 E23_13 E13_03"/>
    </vehicle>
    <vehicle id="92" depart="66.64" departSpeed="max">
        <route edges="E42_32 E32_33 E33_23 E23_24"/>
    </vehicle>
    <vehicle id="93" depart="67.35" departSpeed="max">
        <route edges="E20_21 E21_11 E11_01"/>
    </vehicle>
    <vehicle id="94" depart="67.51" departSpeed="max">
        <route edges="E14_13 E13_12 E12_22 E22_21 E21_20"/>
    </vehicle>
    <vehicle id="95" depart="67.95" departSpeed="max">
        <route edges="E24_23 E23_33 E33_32 E32_42"/>
    </vehicle>
    <vehicle id="96" depart="68.99" departSpeed="max">
        <route edges="E20_21 E21_22 E22_23 E23_24"/>
    </vehicle>
    <vehicle id="97" depart="73.71" departSpeed="max">
        <route edges="E41_31 E31_32 E32_33 E33_34"/>
    </vehicle>
    <vehicle id="98" depart="74.49" departSpeed="max">
        <route edges="E20_21 E21_22 E22_12 E12_13 E13_14"/>
    </vehicle>
    <vehicle id="99" depart="75.06" departSpeed="max">
        <route edges="E30_31 E31_41"/>
    </vehicle>
    <vehicle id="100" depart="76.09" departSpeed="max">
        <route edges="E43_33 E33_34"/>
    </vehicle>
    <vehicle id="101" depart="76.91" departSpeed="max">
        <route edges="E03_13 E13_23 E23_33 E33_34"/>
    </vehicle>
    <vehicle id="102" depart="78.07" departSpeed="max">
        <route edges="E01_11 E11_12 E12_13 E13_14"/>
    </vehicle>
    <vehicle id="103" depart="78.64" departSpeed="max">
        <route edges="E03_13 E13_23 E23_33 E33_43"/>
    </vehicle>
    <vehicle id="104" depart="78.68" departSpeed="max">
        <route edges="E01_11 E11_10"/>
    </vehicle>
    <vehicle id="105" depart="80.60" departSpeed="max">
        <route edges="E02_12 E12_11 E11_10"/>
    </vehicle>
    <vehicle id="106" depart="82.37" departSpeed="max">
        <route edges="E02_12 E12_22 E22_21 E21_11 E11_12 E12_02"/>
    </vehicle>
    <vehicle id="107" depart="82.44" departSpeed="max">
        <route edges="E43_33 E33_23 E23_22 E22_12 E12_11 E11_01"/>
    </vehicle>
    <vehicle id="108" depart="83.43" departSpeed="max">
        <route edges="E20_21 E21_31 E31_41"/>
    </vehicle>
    <vehicle id="109" depart="86.00" departSpeed="max">
        <route edges="E43_33 E33_32 E32_31 E31_21 E21_20"/>
    </vehicle>
    <vehicle id="110" depart="87.45" departSpeed="max">
        <route edges="E20_21 E21_31 E31_41"/>
    </vehicle>
    <vehicle id="111" depart="88.55" departSpeed="max">
        <route edges="E01_11 E11_12 E12_02"/>
    </vehicle>
    <vehicle id="112" depart="88.71" departSpeed="max">
        <route edges="E01_11 E11_21 E21_22 E22_32 E32_42"/>
    </vehicle>
    <vehicle id="113" depart="89.64" departSpeed="max">
        <route edges="E41_31 E31_32 E32_22 E22_23 E23_24"/>
    </vehicle>
    <vehicle id="114" depart="89.71" departSpeed="max">
        <route edges="E14_13 E13_23 E23_24"/>
    </vehicle>
    <vehicle id="115" depart="89.79" departSpeed="max">
        <route edges="E30_31 E31_32 E32_42"/>
    </vehicle>
    <vehicle id="116" depart="89.83" departSpeed="max">
        <route edges="E20_21 E21_31 E31_41"/>
    </vehicle>
    <vehicle id="117" depart="91.62" departSpeed="max">
        <route edges="E24_23 E23_22 E22_12 E12_13 E13_23 E23_24"/>
    </vehicle>
    <vehicle id="118" depart="92.19" departSpeed="max">
        <route edges="E20_21 E21_22 E22_23 E23_24"/>
    </vehicle>
    <vehicle id="119" depart="92.50" departSpeed="max">
        <route edges="E42_32 E32_33 E33_23 E23_13 E13_03"/>
    </vehicle>
    <vehicle id="120" depart="93.61" departSpeed="max">
        <route edges="E41_31 E31_32 E32_22 E22_12 E12_02"/>
    </vehicle>
    <vehicle id="121" depart="94.50" departSpeed="max">
        <route edges="E14_13 E13_03"/>
    </vehicle>
    <vehicle id="122" depart="96.04" departSpeed="max">
        <route edges="E42_32 E32_22 E22_21 E21_11 E11_10"/>
    </vehicle>
    <vehicle id="123" depart="97.35" departSpeed="max">
        <route edges="E10_11 E11_21 E21_22 E22_32 E32_33 E33_43"/>
    </vehicle>
    <vehicle id="124" depart="97.84" departSpeed="max">
        <route edges="E30_31 E31_21 E21_11 E11_10"/>
    </vehicle>
    <vehicle id="125" depart="100.09" departSpeed="max">
        <route edges="E24_23 E23_13 E13_12 E12_02"/>
    </vehicle>
    <vehicle id="126" depart="100.83" departSpeed="max">
        <route edges="E03_13 E13_12 E12_22 E22_32 E32_31 E31_41"/>
    </vehicle>
    <vehicle id="127" depart="101.40" departSpeed="max">
        <route edges="E42_32 E32_22 E22_23 E23_33 E33_32 E32_42"/>
    </vehicle>
    <vehicle id="128" depart="102.01" departSpeed="max">
        <route edges="E02_12 E12_11 E11_10"/>
    </vehicle>
    <vehicle id="129" depart="102.35" departSpeed="max">
        <route edges="E43_33 E33_23 E23_24"/>
    </vehicle>
    <vehicle id="130" depart="103.37" departSpeed="max">
        <route edges="E20_21 E21_22 E22_12 E12_13 E13_14"/>
    </vehicle>
    <vehicle id="131" depart="103.59" departSpeed="max">
        <route edges="E03_13 E13_12 E12_22 E22_32 E32_31 E31_41"/>
    </vehicle>
    <vehicle id="132" depart="104.88" departSpeed="max">
        <route edges="E30_31 E31_32 E32_33 E33_43"/>
    </vehicle>
    <vehicle id="133" depart="105.11" departSpeed="max">
        <route edges="E02_12 E12_11 E11_21 E21_20"/>
    </vehicle>
    <vehicle id="134" depart="105.51" departSpeed="max">
        <route edges="E43_33 E33_23 E23_24"/>
    </vehicle>
    <vehicle id="135" depart="106.02" departSpeed="max">
        <route edges="E02_12 E12_11 E11_01"/>
    </vehicle>
    <vehicle id="136" depart="106.06" departSpeed="max">
        <route edges="E43_33 E33_32 E32_42"/>
    </vehicle>
    <vehicle id="137" depart="107.28" departSpeed="max">
        <route edges="E43_33 E33_32 E32_22 E22_23 E23_33 E33_43"/>
    </vehicle>
    <vehicle id="138" depart="107.31" departSpeed="max">
        <route edges="E02_12 E12_22 E22_23 E23_33 E33_43"/>
    </vehicle>
    <vehicle id="139" depart="107.32" departSpeed="max">
        <route edges="E24_23 E23_22 E22_12 E12_13 E13_23 E23_24"/>
    </vehicle>
    <vehicle id="140" depart="109.05" departSpeed="max">
        <route edges="E30_31 E31_21 E21_22 E22_12 E12_13 E13_03"/>
    </vehicle>
    <vehicle id="141" depart="109.95" departSpeed="max">
        <route edges="E42_32 E32_33 E33_43"/>
    </vehicle>
    <vehicle id="142" depart="110.87" departSpeed="max">
        <route edges="E34_33 E33_43"/>
    </vehicle>
    <vehicle id="143" depart="112.51" departSpeed="max">
        <route edges="E30_31 E31_32 E32_42"/>
    </vehicle>
    <vehicle id="144" depart="113.69" departSpeed="max">
        <route edges="E34_33 E33_43"/>
    </vehicle>
    <vehicle id="145" depart="116.38" departSpeed="max">
        <route edges="E14_13 E13_12 E12_11 E11_10"/>
    </vehicle>
    <vehicle id="146" depart="118.08" departSpeed="max">
        <route edges="E20_21 E21_11 E11_01"/>
    </vehicle>
    <vehicle id="147" depart="118.22" departSpeed="max">
        <route edges="E30_31 E31_21 E21_11 E11_10"/>
    </vehicle>
    <vehicle id="148" depart="118.39" departSpeed="max">
        <route edges="E01_11 E11_21 E21_31 E31_30"/>
    </vehicle>
    <vehicle id="149" depart="118.48" departSpeed="max">
        <route edges="E03_13 E13_14"/>
    </vehicle>
    <vehicle id="150" depart="118.58" departSpeed="max">
        <route edges="E14_13 E13_12 E12_22 E22_21 E21_31 E31_30"/>
    </vehicle>
    <vehicle id="151" depart="118.89" departSpeed="max">
        <route edges="E03_13 E13_23 E23_24"/>
    </vehicle>
    <vehicle id="152" depart="119.24" departSpeed="max">
        <route edges="E41_31 E31_32 E32_42"/>
    </vehicle>
    <vehicle id="153" depart="121.06" departSpeed="max">
        <route edges="E03_13 E13_12 E12_11 E11_10"/>
    </vehicle>
    <vehicle id="154" depart="124.28" departSpeed="max">
        <route edges="E42_32 E32_31 E31_41"/>
    </vehicle>
    <vehicle id="155" depart="126.26" departSpeed="max">
        <route edges="E43_33 E33_32 E32_22 E22_23 E23_33 E33_43"/>
    </vehicle>
    <vehicle id="156" depart="126.32" departSpeed="max">
        <route edges="E14_13 E13_12 E12_22 E22_21 E21_20"/>
    </vehicle>
    <vehicle id="157" depart="126.87" departSpeed="max">
        <route edges="E30_31 E31_32 E32_22 E22_23 E23_24"/>
    </vehicle>
    <vehicle id="158" depart="127.91" departSpeed="max">
        <route edges="E01_11 E11_21 E21_31 E31_41"/>
    </vehicle>
    <vehicle id="159" depart="128.54" departSpeed="max">
        <route edges="E14_13 E13_23 E23_22 E22_32 E32_31 E31_41"/>
    </vehicle>
    <vehicle id="160" depart="129.29" departSpeed="max">
        <route edges="E20_21 E21_22 E22_12 E12_13 E13_14"/>
    </vehicle>
    <vehicle id="161" depart="129.51" departSpeed="max">
        <route edges="E01_11 E11_12 E12_13 E13_14"/>
    </vehicle>
    <vehicle id="162" depart="129.56" departSpeed="max">
        <route edges="E10_11 E11_21 E21_20"/>
    </vehicle>
    <vehicle id="163" depart="129.63" departSpeed="max">
        <route edges="E24_23 E23_13 E13_12 E12_02"/>
    </vehicle>
    <vehicle id="164" depart="131.05" departSpeed="max">
        <route edges="E42_32 E32_31 E31_41"/>
    </vehicle>
    <vehicle id="165" depart="132.39" departSpeed="max">
        <route edges="E20_21 E21_22 E22_32 E32_31 E31_21 E21_20"/>
    </vehicle>
    <vehicle id="166" depart="132.50" departSpeed="max">
        <route edges="E02_12 E12_11 E11_21 E21_31 E31_41"/>
    </vehicle>
    <vehicle id="167" depart="134.43" departSpeed="max">
        <route edges="E42_32 E32_31 E31_41"/>
    </vehicle>
    <vehicle id="168" depart="134.91" departSpeed="max">
        <route edges="E20_21 E21_31 E31_32 E32_42"/>
    </vehicle>
    <vehicle id="169" depart="135.14" departSpeed="max">
        <route edges="E30_31 E31_21 E21_11 E11_10"/>
    </vehicle>
    <vehicle id="170" depart="135.61" departSpeed="max">
        <route edges="E10_11 E11_21 E21_22 E22_32 E32_33 E33_43"/>
    </vehicle>
    <vehicle id="171" depart="136.15" departSpeed="max">
        <route edges="E24_23 E23_13 E13_03"/>
    </vehicle>
    <vehicle id="172" depart="136.35" departSpeed="max">
        <route edges="E43_33 E33_32 E32_31 E31_30"/>
    </vehicle>
    <vehicle id="173" depart="137.06" departSpeed="max">
        <route edges="E14_13 E13_12 E12_11 E11_01"/>
    </vehicle>
    <vehicle id="174" depart="142.22" departSpeed="max">
        <route edges="E30_31 E31_21 E21_22 E22_12 E12_13 E13_03"/>
    </vehicle>
    <vehicle id="175" depart="143.47" departSpeed="max">
        <route edges="E03_13 E13_12 E12_22 E22_21 E21_20"/>
    </vehicle>
    <vehicle id="176" depart="144.59" departSpeed="max">
        <route edges="E24_23 E23_33 E33_43"/>
    </vehicle>
    <vehicle id="177" depart="145.08" departSpeed="max">
        <route edges="E03_13 E13_12 E12_22 E22_32 E32_42"/>
    </vehicle>
    <vehicle id="178" depart="146.64" departSpeed="max">
        <route edges="E10_11 E11_21 E21_20"/>
    </vehicle>
    <vehicle id="179" depart="147.79" departSpeed="max">
        <route edges="E41_31 E31_32 E32_22 E22_12 E12_13 E13_03"/>
    </vehicle>
    <vehicle id="180" depart="148.01" departSpeed="max">
        <route edges="E24_23 E23_22 E22_12 E12_13 E13_23 E23_24"/>
    </vehicle>
    <vehicle id="181" depart="149.56" departSpeed="max">
        <route edges="E34_33 E33_23 E23_22 E22_12 E12_02"/>
    </vehicle>
    <vehicle id="182" depart="149.67" departSpeed="max">
        <route edges="E41_31 E31_21 E21_11 E11_10"/>
    </vehicle>
    <vehicle id="183" depart="150.34" departSpeed="max">
        <route edges="E10_11 E11_21 E21_31 E31_30"/>
    </vehicle>
    <vehicle id="184" depart="150.40" departSpeed="max">
        <route edges="E30_31 E31_21 E21_11 E11_10"/>
    </vehicle>
    <vehicle id="185" depart="150.67" departSpeed="max">
        <route edges="E30_31 E31_21 E21_22 E22_12 E12_13 E13_03"/>
    </vehicle>
    <vehicle id="186" depart="152.41" departSpeed="max">
        <route edges="E03_13 E13_23 E23_33 E33_34"/>
    </vehicle>
    <vehicle id="187" depart="153.12" departSpeed="max">
        <route edges="E30_31 E31_21 E21_11 E11_01"/>
    </vehicle>
    <vehicle id="188" depart="153.18" departSpeed="max">
        <route edges="E34_33 E33_23 E23_22 E22_21 E21_20"/>
    </vehicle>
    <vehicle id="189" depart="153.49" departSpeed="max">
        <route edges="E43_33 E33_32 E32_31 E31_30"/>
    </vehicle>
    <vehicle id="190" depart="153.57" departSpeed="max">
        <route edges="E14_13 E13_12 E12_22 E22_21 E21_20"/>
    </vehicle>
    <vehicle id="191" depart="154.75" departSpeed="max">
        <route edges="E20_21 E21_22 E22_12 E12_13 E13_03"/>
    </vehicle>
    <vehicle id="192" depart="155.88" departSpeed="max">
        <route edges="E30_31 E31_32 E32_33 E33_43"/>
    </vehicle>
    <vehicle id="193" depart="158.81" departSpeed="max">
        <route edges="E41_31 E31_32 E32_22 E22_23 E23_13 E13_14"/>
    </vehicle>
    <vehicle id="194" depart="159.01" departSpeed="max">
        <route edges="E34_33 E33_23 E23_22 E22_12 E12_11 E11_01"/>
    </vehicle>
    <vehicle id="195" depart="160.54" departSpeed="max">
        <route edges="E10_11 E11_21 E21_22 E22_23 E23_24"/>
    </vehicle>
    <vehicle id="196" depart="160.54" departSpeed="max">
        <route edges="E02_12 E12_11 E11_21 E21_20"/>
    </vehicle>
    <vehicle id="197" depart="161.01" departSpeed="max">
        <route edges="E34_33 E33_23 E23_13 E13_14"/>
    </vehicle>
    <vehicle id="198" depart="161.06" departSpeed="max">
        <route edges="E01_11 E11_12 E12_13 E13_14"/>
    </vehicle>
    <vehicle id="199" depart="161.44" departSpeed="max">
        <route edges="E30_31 E31_32 E32_33 E33_43"/>
    </vehicle>
    <vehicle id="200" depart="161.57" departSpeed="max">
        <route edges="E01_11 E11_12 E12_13 E13_03"/>
    </vehicle>
    <vehicle id="201" depart="163.02" departSpeed="max">
        <route edges="E30_31 E31_21 E21_11 E11_10"/>
    </vehicle>
    <vehicle id="202" depart="163.04" departSpeed="max">
        <route edges="E03_13 E13_12 E12_22 E22_21 E21_31 E31_30"/>
    </vehicle>
    <vehicle id="203" depart="164.85" departSpeed="max">
        <route edges="E34_33 E33_32 E32_31 E31_30"/>
    </vehicle>
    <vehicle id="204" depart="165.70" departSpeed="max">
        <route edges="E03_13 E13_23 E23_22 E22_12 E12_13 E13_03"/>
    </vehicle>
    <vehicle id="205" depart="166.55" departSpeed="max">
        <route edges="E10_11 E11_21 E21_22 E22_23 E23_33 E33_34"/>
    </vehicle>
    <vehicle id="206" depart="166.67" departSpeed="max">
        <route edges="E41_31 E31_32 E32_22 E22_12 E12_13 E13_03"/>
    </vehicle>
    <vehicle id="207" depart="166.83" departSpeed="max">
        <route edges="E34_33 E33_23 E23_13 E13_14"/>
    </vehicle>
    <vehicle id="208" depart="168.50" departSpeed="max">
        <route edges="E24_23 E23_13 E13_14"/>
    </vehicle>
    <vehicle id="209" depart="168.55" departSpeed="max">
        <route edges="E02_12 E12_11 E11_10"/>
    </vehicle>
    <vehicle id="210" depart="168.55" departSpeed="max">
        <route edges="E10_11 E11_21 E21_22 E22_32 E32_42"/>
    </vehicle>
    <vehicle id="211" depart="171.33" departSpeed="max">
        <route edges="E20_21 E21_31 E31_32 E32_33 E33_43"/>
    </vehicle>
    <vehicle id="212" depart="171.90" departSpeed="max">
        <route edges="E02_12 E12_22 E22_21 E21_11 E11_12 E12_02"/>
    </vehicle>
    <vehicle id="213" depart="172.37" departSpeed="max">
        <route edges="E24_23 E23_33 E33_32 E32_42"/>
    </vehicle>
    <vehicle id="214" depart="172.59" departSpeed="max">
        <route edges="E41_31 E31_32 E32_22 E22_23 E23_24"/>
    </vehicle>
    <vehicle id="215" depart="173.68" departSpeed="max">
        <route edges="E30_31 E31_32 E32_33 E33_43"/>
    </vehicle>
    <vehicle id="216" depart="175.12" departSpeed="max">
        <route edges="E42_32 E32_31 E31_41"/>
    </vehicle>
    <vehicle id="217" depart="176.69" departSpeed="max">
        <route edges="E34_33 E33_32 E32_42"/>
    </vehicle>
    <vehicle id="218" depart="177.79" departSpeed="max">
        <route edges="E20_21 E21_31 E31_32 E32_33 E33_43"/>
    </vehicle>
    <vehicle id="219" depart="177.94" departSpeed="max">
        <route edges="E02_12 E12_11 E11_10"/>
    </vehicle>
    <vehicle id="220" depart="178.39" departSpeed="max">
        <route edges="E01_11 E11_12 E12_13 E13_14"/>
    </vehicle>
    <vehicle id="221" depart="178.53" departSpeed="max">
        <route edges="E30_31 E31_21 E21_11 E11_10"/>
    </vehicle>
    <vehicle id="222" depart="179.16" departSpeed="max">
        <route edges="E20_21 E21_31 E31_32 E32_33 E33_43"/>
    </vehicle>
    <vehicle id="223" depart="179.28" departSpeed="max">
        <route edges="E24_23 E23_33 E33_43"/>
    </vehicle>
    <vehicle id="224" depart="179.57" departSpeed="max">
        <route edges="E03_13 E13_23 E23_22 E22_12 E12_13 E13_03"/>
    </vehicle>
    <vehicle id="225" depart="180.43" departSpeed="max">
        <route edges="E34_33 E33_23 E23_22 E22_21 E21_11 E11_10"/>
    </vehicle>
    <vehicle id="226" depart="181.20" departSpeed="max">
        <route edges="E02_12 E12_11 E11_21 E21_31 E31_41"/>
    </vehicle>
    <vehicle id="227" depart="181.23" departSpeed="max">
        <route edges="E30_31 E31_21 E21_22 E22_12 E12_13 E13_03"/>
    </vehicle>
    <vehicle id="228" depart="182.23" departSpeed="max">