<?xml version="1.0" encoding="UTF-8"?>

<!-- generated on 2025-01-06 23:03:56 by Eclipse SUMO netedit Version 1.20.0
<configuration xmlns:xsi="http://www.w3.org/2001/XMLSchema-instance" xsi:noNamespaceSchemaLocation="http://sumo.dlr.de/xsd/neteditConfiguration.xsd">

    <input>
        <sumo-net-file value="3x3.net.xml"/>
    </input>

    <output>
        <output-file value="3x3.net.xml"/>
    </output>

    <processing>
        <geometry.min-radius.fix.railways value="false"/>
        <geometry.max-grade.fix value="false"/>
        <offset.disable-normalization value="true"/>
        <lefthand value="0"/>
    </processing>

    <junctions>
        <no-turnarounds value="true"/>
        <junctions.corner-detail value="5"/>
        <junctions.limit-turn-speed value="5.50"/>
        <rectangular-lane-cut value="0"/>
    </junctions>

    <pedestrian>
        <walkingareas value="0"/>
    </pedestrian>

</configuration>
-->

<net version="1.20" junctionCornerDetail="5" limitTurnSpeed="5.50" xmlns:xsi="http://www.w3.org/2001/XMLSchema-instance" xsi:noNamespaceSchemaLocation="http://sumo.dlr.de/xsd/net_file.xsd">

    <location netOffset="0.00,0.00" convBoundary="-600.00,-600.00,600.00,600.00" origBoundary="-10000000000.00,-10000000000.00,10000000000.00,10000000000.00" projParameter="!"/>

    <edge id=":J11_0" function="internal">
        <lane id=":J11_0_0" index="0" speed="6.51" length="9.03" shape="-308.00,313.60 -308.35,311.15 -309.40,309.40 -311.15,308.35 -313.60,308.00"/>
    </edge>
    <edge id=":J11_1" function="internal">
        <lane id=":J11_1_0" index="0" speed="13.89" length="27.20" shape="-308.00,313.60 -308.00,286.40"/>
        <lane id=":J11_1_1" index="1" speed="13.89" length="27.20" shape="-304.80,313.60 -304.80,286.40"/>
    </edge>
    <edge id=":J11_3" function="internal">
        <lane id=":J11_3_0" index="0" speed="10.36" length="12.07" shape="-301.60,313.60 -300.65,306.95 -297.90,302.36"/>
    </edge>
    <edge id=":J11_16" function="internal">
        <lane id=":J11_16_0" index="0" speed="10.36" length="12.44" shape="-297.90,302.36 -297.80,302.20 -293.05,299.35 -286.40,298.40"/>
    </edge>
    <edge id=":J11_4" function="internal">
        <lane id=":J11_4_0" index="0" speed="6.51" length="9.03" shape="-286.40,308.00 -288.85,308.35 -290.60,309.40 -291.65,311.15 -292.00,313.60"/>
    </edge>
    <edge id=":J11_5" function="internal">
        <lane id=":J11_5_0" index="0" speed="13.89" length="27.20" shape="-286.40,308.00 -313.60,308.00"/>
        <lane id=":J11_5_1" index="1" speed="13.89" length="27.20" shape="-286.40,304.80 -313.60,304.80"/>
    </edge>
    <edge id=":J11_7" function="internal">
        <lane id=":J11_7_0" index="0" speed="10.36" length="12.07" shape="-286.40,301.60 -293.05,300.65 -297.64,297.90"/>
    </edge>
    <edge id=":J11_17" function="internal">
        <lane id=":J11_17_0" index="0" speed="10.36" length="12.44" shape="-297.64,297.90 -297.80,297.80 -300.65,293.05 -301.60,286.40"/>
    </edge>
    <edge id=":J11_8" function="internal">
        <lane id=":J11_8_0" index="0" speed="6.51" length="9.03" shape="-292.00,286.40 -291.65,288.85 -290.60,290.60 -288.85,291.65 -286.40,292.00"/>
    </edge>
    <edge id=":J11_9" function="internal">
        <lane id=":J11_9_0" index="0" speed="13.89" length="27.20" shape="-292.00,286.40 -292.00,313.60"/>
        <lane id=":J11_9_1" index="1" speed="13.89" length="27.20" shape="-295.20,286.40 -295.20,313.60"/>
    </edge>
    <edge id=":J11_11" function="internal">
        <lane id=":J11_11_0" index="0" speed="10.36" length="12.07" shape="-298.40,286.40 -299.35,293.05 -302.10,297.64"/>
    </edge>
    <edge id=":J11_18" function="internal">
        <lane id=":J11_18_0" index="0" speed="10.36" length="12.44" shape="-302.10,297.64 -302.20,297.80 -306.95,300.65 -313.60,301.60"/>
    </edge>
    <edge id=":J11_12" function="internal">
        <lane id=":J11_12_0" index="0" speed="6.51" length="9.03" shape="-313.60,292.00 -311.15,291.65 -309.40,290.60 -308.35,288.85 -308.00,286.40"/>
    </edge>
    <edge id=":J11_13" function="internal">
        <lane id=":J11_13_0" index="0" speed="13.89" length="27.20" shape="-313.60,292.00 -286.40,292.00"/>
        <lane id=":J11_13_1" index="1" speed="13.89" length="27.20" shape="-313.60,295.20 -286.40,295.20"/>
    </edge>
    <edge id=":J11_15" function="internal">
        <lane id=":J11_15_0" index="0" speed="10.36" length="12.07" shape="-313.60,298.40 -306.95,299.35 -302.36,302.10"/>
    </edge>
    <edge id=":J11_19" function="internal">
        <lane id=":J11_19_0" index="0" speed="10.36" length="12.44" shape="-302.36,302.10 -302.20,302.20 -299.35,306.95 -298.40,313.60"/>
    </edge>
    <edge id=":J12_0" function="internal">
        <lane id=":J12_0_0" index="0" speed="6.51" length="9.03" shape="-8.00,313.60 -8.35,311.15 -9.40,309.40 -11.15,308.35 -13.60,308.00"/>
    </edge>
    <edge id=":J12_1" function="internal">
        <lane id=":J12_1_0" index="0" speed="13.89" length="27.20" shape="-8.00,313.60 -8.00,286.40"/>
        <lane id=":J12_1_1" index="1" speed="13.89" length="27.20" shape="-4.80,313.60 -4.80,286.40"/>
    </edge>
    <edge id=":J12_3" function="internal">
        <lane id=":J12_3_0" index="0" speed="10.36" length="12.07" shape="-1.60,313.60 -0.65,306.95 2.10,302.36"/>
    </edge>
    <edge id=":J12_16" function="internal">
        <lane id=":J12_16_0" index="0" speed="10.36" length="12.44" shape="2.10,302.36 2.20,302.20 6.95,299.35 13.60,298.40"/>
    </edge>
    <edge id=":J12_4" function="internal">
        <lane id=":J12_4_0" index="0" speed="6.51" length="9.03" shape="13.60,308.00 11.15,308.35 9.40,309.40 8.35,311.15 8.00,313.60"/>
    </edge>
    <edge id=":J12_5" function="internal">
        <lane id=":J12_5_0" index="0" speed="13.89" length="27.20" shape="13.60,308.00 -13.60,308.00"/>
        <lane id=":J12_5_1" index="1" speed="13.89" length="27.20" shape="13.60,304.80 -13.60,304.80"/>
    </edge>
    <edge id=":J12_7" function="internal">
        <lane id=":J12_7_0" index="0" speed="10.36" length="12.07" shape="13.60,301.60 6.95,300.65 2.36,297.90"/>
    </edge>
    <edge id=":J12_17" function="internal">
        <lane id=":J12_17_0" index="0" speed="10.36" length="12.44" shape="2.36,297.90 2.20,297.80 -0.65,293.05 -1.60,286.40"/>
    </edge>
    <edge id=":J12_8" function="internal">
        <lane id=":J12_8_0" index="0" speed="6.51" length="9.03" shape="8.00,286.40 8.35,288.85 9.40,290.60 11.15,291.65 13.60,292.00"/>
    </edge>
    <edge id=":J12_9" function="internal">
        <lane id=":J12_9_0" index="0" speed="13.89" length="27.20" shape="8.00,286.40 8.00,313.60"/>
        <lane id=":J12_9_1" index="1" speed="13.89" length="27.20" shape="4.80,286.40 4.80,313.60"/>
    </edge>
    <edge id=":J12_11" function="internal">
        <lane id=":J12_11_0" index="0" speed="10.36" length="12.07" shape="1.60,286.40 0.65,293.05 -2.10,297.64"/>
    </edge>
    <edge id=":J12_18" function="internal">
        <lane id=":J12_18_0" index="0" speed="10.36" length="12.44" shape="-2.10,297.64 -2.20,297.80 -6.95,300.65 -13.60,301.60"/>
    </edge>
    <edge id=":J12_12" function="internal">
        <lane id=":J12_12_0" index="0" speed="6.51" length="9.03" shape="-13.60,292.00 -11.15,291.65 -9.40,290.60 -8.35,288.85 -8.00,286.40"/>
    </edge>
    <edge id=":J12_13" function="internal">
        <lane id=":J12_13_0" index="0" speed="13.89" length="27.20" shape="-13.60,292.00 13.60,292.00"/>
        <lane id=":J12_13_1" index="1" speed="13.89" length="27.20" shape="-13.60,295.20 13.60,295.20"/>
    </edge>
    <edge id=":J12_15" function="internal">
        <lane id=":J12_15_0" index="0" speed="10.36" length="12.07" shape="-13.60,298.40 -6.95,299.35 -2.36,302.10"/>
    </edge>
    <edge id=":J12_19" function="internal">
        <lane id=":J12_19_0" index="0" speed="10.36" length="12.44" shape="-2.36,302.10 -2.20,302.20 0.65,306.95 1.60,313.60"/>
    </edge>
    <edge id=":J13_0" function="internal">
        <lane id=":J13_0_0" index="0" speed="6.51" length="9.03" shape="292.00,313.60 291.65,311.15 290.60,309.40 288.85,308.35 286.40,308.00"/>
    </edge>
    <edge id=":J13_1" function="internal">
        <lane id=":J13_1_0" index="0" speed="13.89" length="27.20" shape="292.00,313.60 292.00,286.40"/>
        <lane id=":J13_1_1" index="1" speed="13.89" length="27.20" shape="295.20,313.60 295.20,286.40"/>
    </edge>
    <edge id=":J13_3" function="internal">
        <lane id=":J13_3_0" index="0" speed="10.36" length="12.07" shape="298.40,313.60 299.35,306.95 302.10,302.36"/>
    </edge>
    <edge id=":J13_16" function="internal">
        <lane id=":J13_16_0" index="0" speed="10.36" length="12.44" shape="302.10,302.36 302.20,302.20 306.95,299.35 313.60,298.40"/>
    </edge>
    <edge id=":J13_4" function="internal">
        <lane id=":J13_4_0" index="0" speed="6.51" length="9.03" shape="313.60,308.00 311.15,308.35 309.40,309.40 308.35,311.15 308.00,313.60"/>
    </edge>
    <edge id=":J13_5" function="internal">
        <lane id=":J13_5_0" index="0" speed="13.89" length="27.20" shape="313.60,308.00 286.40,308.00"/>
        <lane id=":J13_5_1" index="1" speed="13.89" length="27.20" shape="313.60,304.80 286.40,304.80"/>
    </edge>
    <edge id=":J13_7" function="internal">
        <lane id=":J13_7_0" index="0" speed="10.36" length="12.07" shape="313.60,301.60 306.95,300.65 302.36,297.90"/>
    </edge>
    <edge id=":J13_17" function="internal">
        <lane id=":J13_17_0" index="0" speed="10.36" length="12.44" shape="302.36,297.90 302.20,297.80 299.35,293.05 298.40,286.40"/>
    </edge>
    <edge id=":J13_8" function="internal">
        <lane id=":J13_8_0" index="0" speed="6.51" length="9.03" shape="308.00,286.40 308.35,288.85 309.40,290.60 311.15,291.65 313.60,292.00"/>
    </edge>
    <edge id=":J13_9" function="internal">
        <lane id=":J13_9_0" index="0" speed="13.89" length="27.20" shape="308.00,286.40 308.00,313.60"/>
        <lane id=":J13_9_1" index="1" speed="13.89" length="27.20" shape="304.80,286.40 304.80,313.60"/>
    </edge>
    <edge id=":J13_11" function="internal">
        <lane id=":J13_11_0" index="0" speed="10.36" length="12.07" shape="301.60,286.40 300.65,293.05 297.90,297.64"/>
    </edge>
    <edge id=":J13_18" function="internal">
        <lane id=":J13_18_0" index="0" speed="10.36" length="12.44" shape="297.90,297.64 297.80,297.80 293.05,300.65 286.40,301.60"/>
    </edge>
    <edge id=":J13_12" function="internal">
        <lane id=":J13_12_0" index="0" speed="6.51" length="9.03" shape="286.40,292.00 288.85,291.65 290.60,290.60 291.65,288.85 292.00,286.40"/>
    </edge>
    <edge id=":J13_13" function="internal">
        <lane id=":J13_13_0" index="0" speed="13.89" length="27.20" shape="286.40,292.00 313.60,292.00"/>
        <lane id=":J13_13_1" index="1" speed="13.89" length="27.20" shape="286.40,295.20 313.60,295.20"/>
    </edge>
    <edge id=":J13_15" function="internal">
        <lane id=":J13_15_0" index="0" speed="10.36" length="12.07" shape="286.40,298.40 293.05,299.35 297.64,302.10"/>
    </edge>
    <edge id=":J13_19" function="internal">
        <lane id=":J13_19_0" index="0" speed="10.36" length="12.44" shape="297.64,302.10 297.80,302.20 300.65,306.95 301.60,313.60"/>
    </edge>
    <edge id=":J21_0" function="internal">
        <lane id=":J21_0_0" index="0" speed="6.51" length="9.03" shape="-308.00,13.60 -308.35,11.15 -309.40,9.40 -311.15,8.35 -313.60,8.00"/>
    </edge>
    <edge id=":J21_1" function="internal">
        <lane id=":J21_1_0" index="0" speed="13.89" length="27.20" shape="-308.00,13.60 -308.00,-13.60"/>
        <lane id=":J21_1_1" index="1" speed="13.89" length="27.20" shape="-304.80,13.60 -304.80,-13.60"/>
    </edge>
    <edge id=":J21_3" function="internal">
        <lane id=":J21_3_0" index="0" speed="10.36" length="12.07" shape="-301.60,13.60 -300.65,6.95 -297.90,2.36"/>
    </edge>
    <edge id=":J21_16" function="internal">
        <lane id=":J21_16_0" index="0" speed="10.36" length="12.44" shape="-297.90,2.36 -297.80,2.20 -293.05,-0.65 -286.40,-1.60"/>
    </edge>
    <edge id=":J21_4" function="internal">
        <lane id=":J21_4_0" index="0" speed="6.51" length="9.03" shape="-286.40,8.00 -288.85,8.35 -290.60,9.40 -291.65,11.15 -292.00,13.60"/>
    </edge>
    <edge id=":J21_5" function="internal">
        <lane id=":J21_5_0" index="0" speed="13.89" length="27.20" shape="-286.40,8.00 -313.60,8.00"/>
        <lane id=":J21_5_1" index="1" speed="13.89" length="27.20" shape="-286.40,4.80 -313.60,4.80"/>
    </edge>
    <edge id=":J21_7" function="internal">
        <lane id=":J21_7_0" index="0" speed="10.36" length="12.07" shape="-286.40,1.60 -293.05,0.65 -297.64,-2.10"/>
    </edge>
    <edge id=":J21_17" function="internal">
        <lane id=":J21_17_0" index="0" speed="10.36" length="12.44" shape="-297.64,-2.10 -297.80,-2.20 -300.65,-6.95 -301.60,-13.60"/>
    </edge>
    <edge id=":J21_8" function="internal">
        <lane id=":J21_8_0" index="0" speed="6.51" length="9.03" shape="-292.00,-13.60 -291.65,-11.15 -290.60,-9.40 -288.85,-8.35 -286.40,-8.00"/>
    </edge>
    <edge id=":J21_9" function="internal">
        <lane id=":J21_9_0" index="0" speed="13.89" length="27.20" shape="-292.00,-13.60 -292.00,13.60"/>
        <lane id=":J21_9_1" index="1" speed="13.89" length="27.20" shape="-295.20,-13.60 -295.20,13.60"/>
    </edge>
    <edge id=":J21_11" function="internal">
        <lane id=":J21_11_0" index="0" speed="10.36" length="12.07" shape="-298.40,-13.60 -299.35,-6.95 -302.10,-2.36"/>
    </edge>
    <edge id=":J21_18" function="internal">
        <lane id=":J21_18_0" index="0" speed="10.36" length="12.44" shape="-302.10,-2.36 -302.20,-2.20 -306.95,0.65 -313.60,1.60"/>
    </edge>
    <edge id=":J21_12" function="internal">
        <lane id=":J21_12_0" index="0" speed="6.51" length="9.03" shape="-313.60,-8.00 -311.15,-8.35 -309.40,-9.40 -308.35,-11.15 -308.00,-13.60"/>
    </edge>
    <edge id=":J21_13" function="internal">
        <lane id=":J21_13_0" index="0" speed="13.89" length="27.20" shape="-313.60,-8.00 -286.40,-8.00"/>
        <lane id=":J21_13_1" index="1" speed="13.89" length="27.20" shape="-313.60,-4.80 -286.40,-4.80"/>
    </edge>
    <edge id=":J21_15" function="internal">
        <lane id=":J21_15_0" index="0" speed="10.36" length="12.07" shape="-313.60,-1.60 -306.95,-0.65 -302.36,2.10"/>
    </edge>
    <edge id=":J21_19" function="internal">
        <lane id=":J21_19_0" index="0" speed="10.36" length="12.44" shape="-302.36,2.10 -302.20,2.20 -299.35,6.95 -298.40,13.60"/>
    </edge>
    <edge id=":J22_0" function="internal">
        <lane id=":J22_0_0" index="0" speed="6.51" length="9.03" shape="-8.00,13.60 -8.35,11.15 -9.40,9.40 -11.15,8.35 -13.60,8.00"/>
    </edge>
    <edge id=":J22_1" function="internal">
        <lane id=":J22_1_0" index="0" speed="13.89" length="27.20" shape="-8.00,13.60 -8.00,-13.60"/>
        <lane id=":J22_1_1" index="1" speed="13.89" length="27.20" shape="-4.80,13.60 -4.80,-13.60"/>
    </edge>
    <edge id=":J22_3" function="internal">
        <lane id=":J22_3_0" index="0" speed="10.36" length="12.07" shape="-1.60,13.60 -0.65,6.95 2.10,2.36"/>
    </edge>
    <edge id=":J22_16" function="internal">
        <lane id=":J22_16_0" index="0" speed="10.36" length="12.44" shape="2.10,2.36 2.20,2.20 6.95,-0.65 13.60,-1.60"/>
    </edge>
    <edge id=":J22_4" function="internal">
        <lane id=":J22_4_0" index="0" speed="6.51" length="9.03" shape="13.60,8.00 11.15,8.35 9.40,9.40 8.35,11.15 8.00,13.60"/>
    </edge>
    <edge id=":J22_5" function="internal">
        <lane id=":J22_5_0" index="0" speed="13.89" length="27.20" shape="13.60,8.00 -13.60,8.00"/>
        <lane id=":J22_5_1" index="1" speed="13.89" length="27.20" shape="13.60,4.80 -13.60,4.80"/>
    </edge>
    <edge id=":J22_7" function="internal">
        <lane id=":J22_7_0" index="0" speed="10.36" length="12.07" shape="13.60,1.60 6.95,0.65 2.36,-2.10"/>
    </edge>
    <edge id=":J22_17" function="internal">
        <lane id=":J22_17_0" index="0" speed="10.36" length="12.44" shape="2.36,-2.10 2.20,-2.20 -0.65,-6.95 -1.60,-13.60"/>
    </edge>
    <edge id=":J22_8" function="internal">
        <lane id=":J22_8_0" index="0" speed="6.51" length="9.03" shape="8.00,-13.60 8.35,-11.15 9.40,-9.40 11.15,-8.35 13.60,-8.00"/>
    </edge>
    <edge id=":J22_9" function="internal">
        <lane id=":J22_9_0" index="0" speed="13.89" length="27.20" shape="8.00,-13.60 8.00,13.60"/>
        <lane id=":J22_9_1" index="1" speed="13.89" length="27.20" shape="4.80,-13.60 4.80,13.60"/>
    </edge>
    <edge id=":J22_11" function="internal">
        <lane id=":J22_11_0" index="0" speed="10.36" length="12.07" shape="1.60,-13.60 0.65,-6.95 -2.10,-2.36"/>
    </edge>
    <edge id=":J22_18" function="internal">
        <lane id=":J22_18_0" index="0" speed="10.36" length="12.44" shape="-2.10,-2.36 -2.20,-2.20 -6.95,0.65 -13.60,1.60"/>
    </edge>
    <edge id=":J22_12" function="internal">
        <lane id=":J22_12_0" index="0" speed="6.51" length="9.03" shape="-13.60,-8.00 -11.15,-8.35 -9.40,-9.40 -8.35,-11.15 -8.00,-13.60"/>
    </edge>
    <edge id=":J22_13" function="internal">
        <lane id=":J22_13_0" index="0" speed="13.89" length="27.20" shape="-13.60,-8.00 13.60,-8.00"/>
        <lane id=":J22_13_1" index="1" speed="13.89" length="27.20" shape="-13.60,-4.80 13.60,-4.80"/>
    </edge>
    <edge id=":J22_15" function="internal">
        <lane id=":J22_15_0" index="0" speed="10.36" length="12.07" shape="-13.60,-1.60 -6.95,-0.65 -2.36,2.10"/>
    </edge>
    <edge id=":J22_19" function="internal">
        <lane id=":J22_19_0" index="0" speed="10.36" length="12.44" shape="-2.36,2.10 -2.20,2.20 0.65,6.95 1.60,13.60"/>
    </edge>
    <edge id=":J23_0" function="internal">
        <lane id=":J23_0_0" index="0" speed="6.51" length="9.03" shape="292.00,13.60 291.65,11.15 290.60,9.40 288.85,8.35 286.40,8.00"/>
    </edge>
    <edge id=":J23_1" function="internal">
        <lane id=":J23_1_0" index="0" speed="13.89" length="27.20" shape="292.00,13.60 292.00,-13.60"/>
        <lane id=":J23_1_1" index="1" speed="13.89" length="27.20" shape="295.20,13.60 295.20,-13.60"/>
    </edge>
    <edge id=":J23_3" function="internal">
        <lane id=":J23_3_0" index="0" speed="10.36" length="12.07" shape="298.40,13.60 299.35,6.95 302.10,2.36"/>
    </edge>
    <edge id=":J23_16" function="internal">
        <lane id=":J23_16_0" index="0" speed="10.36" length="12.44" shape="302.10,2.36 302.20,2.20 306.95,-0.65 313.60,-1.60"/>
    </edge>
    <edge id=":J23_4" function="internal">
        <lane id=":J23_4_0" index="0" speed="6.51" length="9.03" shape="313.60,8.00 311.15,8.35 309.40,9.40 308.35,11.15 308.00,13.60"/>
    </edge>
    <edge id=":J23_5" function="internal">
        <lane id=":J23_5_0" index="0" speed="13.89" length="27.20" shape="313.60,8.00 286.40,8.00"/>
        <lane id=":J23_5_1" index="1" speed="13.89" length="27.20" shape="313.60,4.80 286.40,4.80"/>
    </edge>
    <edge id=":J23_7" function="internal">
        <lane id=":J23_7_0" index="0" speed="10.36" length="12.07" shape="313.60,1.60 306.95,0.65 302.36,-2.10"/>
    </edge>
    <edge id=":J23_17" function="internal">
        <lane id=":J23_17_0" index="0" speed="10.36" length="12.44" shape="302.36,-2.10 302.20,-2.20 299.35,-6.95 298.40,-13.60"/>
    </edge>
    <edge id=":J23_8" function="internal">
        <lane id=":J23_8_0" index="0" speed="6.51" length="9.03" shape="308.00,-13.60 308.35,-11.15 309.40,-9.40 311.15,-8.35 313.60,-8.00"/>
    </edge>
    <edge id=":J23_9" function="internal">
        <lane id=":J23_9_0" index="0" speed="13.89" length="27.20" shape="308.00,-13.60 308.00,13.60"/>
        <lane id=":J23_9_1" index="1" speed="13.89" length="27.20" shape="304.80,-13.60 304.80,13.60"/>
    </edge>
    <edge id=":J23_11" function="internal">
        <lane id=":J23_11_0" index="0" speed="10.36" length="12.07" shape="301.60,-13.60 300.65,-6.95 297.90,-2.36"/>
    </edge>
    <edge id=":J23_18" function="internal">
        <lane id=":J23_18_0" index="0" speed="10.36" length="12.44" shape="297.90,-2.36 297.80,-2.20 293.05,0.65 286.40,1.60"/>
    </edge>
    <edge id=":J23_12" function="internal">
        <lane id=":J23_12_0" index="0" speed="6.51" length="9.03" shape="286.40,-8.00 288.85,-8.35 290.60,-9.40 291.65,-11.15 292.00,-13.60"/>
    </edge>
    <edge id=":J23_13" function="internal">
        <lane id=":J23_13_0" index="0" speed="13.89" length="27.20" shape="286.40,-8.00 313.60,-8.00"/>
        <lane id=":J23_13_1" index="1" speed="13.89" length="27.20" shape="286.40,-4.80 313.60,-4.80"/>
    </edge>
    <edge id=":J23_15" function="internal">
        <lane id=":J23_15_0" index="0" speed="10.36" length="12.07" shape="286.40,-1.60 293.05,-0.65 297.64,2.10"/>
    </edge>
    <edge id=":J23_19" function="internal">
        <lane id=":J23_19_0" index="0" speed="10.36" length="12.44" shape="297.64,2.10 297.80,2.20 300.65,6.95 301.60,13.60"/>
    </edge>
    <edge id=":J31_0" function="internal">
        <lane id=":J31_0_0" index="0" speed="6.51" length="9.03" shape="-308.00,-286.40 -308.35,-288.85 -309.40,-290.60 -311.15,-291.65 -313.60,-292.00"/>
    </edge>
    <edge id=":J31_1" function="internal">
        <lane id=":J31_1_0" index="0" speed="13.89" length="27.20" shape="-308.00,-286.40 -308.00,-313.60"/>
        <lane id=":J31_1_1" index="1" speed="13.89" length="27.20" shape="-304.80,-286.40 -304.80,-313.60"/>
    </edge>
    <edge id=":J31_3" function="internal">
        <lane id=":J31_3_0" index="0" speed="10.36" length="12.07" shape="-301.60,-286.40 -300.65,-293.05 -297.90,-297.64"/>
    </edge>
    <edge id=":J31_16" function="internal">
        <lane id=":J31_16_0" index="0" speed="10.36" length="12.44" shape="-297.90,-297.64 -297.80,-297.80 -293.05,-300.65 -286.40,-301.60"/>
    </edge>
    <edge id=":J31_4" function="internal">
        <lane id=":J31_4_0" index="0" speed="6.51" length="9.03" shape="-286.40,-292.00 -288.85,-291.65 -290.60,-290.60 -291.65,-288.85 -292.00,-286.40"/>
    </edge>
    <edge id=":J31_5" function="internal">
        <lane id=":J31_5_0" index="0" speed="13.89" length="27.20" shape="-286.40,-292.00 -313.60,-292.00"/>
        <lane id=":J31_5_1" index="1" speed="13.89" length="27.20" shape="-286.40,-295.20 -313.60,-295.20"/>
    </edge>
    <edge id=":J31_7" function="internal">
        <lane id=":J31_7_0" index="0" speed="10.36" length="12.07" shape="-286.40,-298.40 -293.05,-299.35 -297.64,-302.10"/>
    </edge>
    <edge id=":J31_17" function="internal">
        <lane id=":J31_17_0" index="0" speed="10.36" length="12.44" shape="-297.64,-302.10 -297.80,-302.20 -300.65,-306.95 -301.60,-313.60"/>
    </edge>
    <edge id=":J31_8" function="internal">
        <lane id=":J31_8_0" index="0" speed="6.51" length="9.03" shape="-292.00,-313.60 -291.65,-311.15 -290.60,-309.40 -288.85,-308.35 -286.40,-308.00"/>
    </edge>
    <edge id=":J31_9" function="internal">
        <lane id=":J31_9_0" index="0" speed="13.89" length="27.20" shape="-292.00,-313.60 -292.00,-286.40"/>
        <lane id=":J31_9_1" index="1" speed="13.89" length="27.20" shape="-295.20,-313.60 -295.20,-286.40"/>
    </edge>
    <edge id=":J31_11" function="internal">
        <lane id=":J31_11_0" index="0" speed="10.36" length="12.07" shape="-298.40,-313.60 -299.35,-306.95 -302.10,-302.36"/>
    </edge>
    <edge id=":J31_18" function="internal">
        <lane id=":J31_18_0" index="0" speed="10.36" length="12.44" shape="-302.10,-302.36 -302.20,-302.20 -306.95,-299.35 -313.60,-298.40"/>
    </edge>
    <edge id=":J31_12" function="internal">
        <lane id=":J31_12_0" index="0" speed="6.51" length="9.03" shape="-313.60,-308.00 -311.15,-308.35 -309.40,-309.40 -308.35,-311.15 -308.00,-313.60"/>
    </edge>
    <edge id=":J31_13" function="internal">
        <lane id=":J31_13_0" index="0" speed="13.89" length="27.20" shape="-313.60,-308.00 -286.40,-308.00"/>
        <lane id=":J31_13_1" index="1" speed="13.89" length="27.20" shape="-313.60,-304.80 -286.40,-304.80"/>
    </edge>
    <edge id=":J31_15" function="internal">
        <lane id=":J31_15_0" index="0" speed="10.36" length="12.07" shape="-313.60,-301.60 -306.95,-300.65 -302.36,-297.90"/>
    </edge>
    <edge id=":J31_19" function="internal">
        <lane id=":J31_19_0" index="0" speed="10.36" length="12.44" shape="-302.36,-297.90 -302.20,-297.80 -299.35,-293.05 -298.40,-286.40"/>
    </edge>
    <edge id=":J32_0" function="internal">
        <lane id=":J32_0_0" index="0" speed="6.51" length="9.03" shape="-8.00,-286.40 -8.35,-288.85 -9.40,-290.60 -11.15,-291.65 -13.60,-292.00"/>
    </edge>
    <edge id=":J32_1" function="internal">
        <lane id=":J32_1_0" index="0" speed="13.89" length="27.20" shape="-8.00,-286.40 -8.00,-313.60"/>
        <lane id=":J32_1_1" index="1" speed="13.89" length="27.20" shape="-4.80,-286.40 -4.80,-313.60"/>
    </edge>
    <edge id=":J32_3" function="internal">
        <lane id=":J32_3_0" index="0" speed="10.36" length="12.07" shape="-1.60,-286.40 -0.65,-293.05 2.10,-297.64"/>
    </edge>
    <edge id=":J32_16" function="internal">
        <lane id=":J32_16_0" index="0" speed="10.36" length="12.44" shape="2.10,-297.64 2.20,-297.80 6.95,-300.65 13.60,-301.60"/>
    </edge>
    <edge id=":J32_4" function="internal">
        <lane id=":J32_4_0" index="0" speed="6.51" length="9.03" shape="13.60,-292.00 11.15,-291.65 9.40,-290.60 8.35,-288.85 8.00,-286.40"/>
    </edge>
    <edge id=":J32_5" function="internal">
        <lane id=":J32_5_0" index="0" speed="13.89" length="27.20" shape="13.60,-292.00 -13.60,-292.00"/>
        <lane id=":J32_5_1" index="1" speed="13.89" length="27.20" shape="13.60,-295.20 -13.60,-295.20"/>
    </edge>
    <edge id=":J32_7" function="internal">
        <lane id=":J32_7_0" index="0" speed="10.36" length="12.07" shape="13.60,-298.40 6.95,-299.35 2.36,-302.10"/>
    </edge>
    <edge id=":J32_17" function="internal">
        <lane id=":J32_17_0" index="0" speed="10.36" length="12.44" shape="2.36,-302.10 2.20,-302.20 -0.65,-306.95 -1.60,-313.60"/>
    </edge>
    <edge id=":J32_8" function="internal">
        <lane id=":J32_8_0" index="0" speed="6.51" length="9.03" shape="8.00,-313.60 8.35,-311.15 9.40,-309.40 11.15,-308.35 13.60,-308.00"/>
    </edge>
    <edge id=":J32_9" function="internal">
        <lane id=":J32_9_0" index="0" speed="13.89" length="27.20" shape="8.00,-313.60 8.00,-286.40"/>
        <lane id=":J32_9_1" index="1" speed="13.89" length="27.20" shape="4.80,-313.60 4.80,-286.40"/>
    </edge>
    <edge id=":J32_11" function="internal">
        <lane id=":J32_11_0" index="0" speed="10.36" length="12.07" shape="1.60,-313.60 0.65,-306.95 -2.10,-302.36"/>
    </edge>
    <edge id=":J32_18" function="internal">
        <lane id=":J32_18_0" index="0" speed="10.36" length="12.44" shape="-2.10,-302.36 -2.20,-302.20 -6.95,-299.35 -13.60,-298.40"/>
    </edge>
    <edge id=":J32_12" function="internal">
        <lane id=":J32_12_0" index="0" speed="6.51" length="9.03" shape="-13.60,-308.00 -11.15,-308.35 -9.40,-309.40 -8.35,-311.15 -8.00,-313.60"/>
    </edge>
    <edge id=":J32_13" function="internal">
        <lane id=":J32_13_0" index="0" speed="13.89" length="27.20" shape="-13.60,-308.00 13.60,-308.00"/>
        <lane id=":J32_13_1" index="1" speed="13.89" length="27.20" shape="-13.60,-304.80 13.60,-304.80"/>
    </edge>
    <edge id=":J32_15" function="internal">
        <lane id=":J32_15_0" index="0" speed="10.36" length="12.07" shape="-13.60,-301.60 -6.95,-300.65 -2.36,-297.90"/>
    </edge>
    <edge id=":J32_19" function="internal">
        <lane id=":J32_19_0" index="0" speed="10.36" length="12.44" shape="-2.36,-297.90 -2.20,-297.80 0.65,-293.05 1.60,-286.40"/>
    </edge>
    <edge id=":J33_0" function="internal">
        <lane id=":J33_0_0" index="0" speed="6.51" length="9.03" shape="292.00,-286.40 291.65,-288.85 290.60,-290.60 288.85,-291.65 286.40,-292.00"/>
    </edge>
    <edge id=":J33_1" function="internal">
        <lane id=":J33_1_0" index="0" speed="13.89" length="27.20" shape="292.00,-286.40 292.00,-313.60"/>
        <lane id=":J33_1_1" index="1" speed="13.89" length="27.20" shape="295.20,-286.40 295.20,-313.60"/>
    </edge>
    <edge id=":J33_3" function="internal">
        <lane id=":J33_3_0" index="0" speed="10.36" length="12.07" shape="298.40,-286.40 299.35,-293.05 302.10,-297.64"/>
    </edge>
    <edge id=":J33_16" function="internal">
        <lane id=":J33_16_0" index="0" speed="10.36" length="12.44" shape="302.10,-297.64 302.20,-297.80 306.95,-300.65 313.60,-301.60"/>
    </edge>
    <edge id=":J33_4" function="internal">
        <lane id=":J33_4_0" index="0" speed="6.51" length="9.03" shape="313.60,-292.00 311.15,-291.65 309.40,-290.60 308.35,-288.85 308.00,-286.40"/>
    </edge>
    <edge id=":J33_5" function="internal">
        <lane id=":J33_5_0" index="0" speed="13.89" length="27.20" shape="313.60,-292.00 286.40,-292.00"/>
        <lane id=":J33_5_1" index="1" speed="13.89" length="27.20" shape="313.60,-295.20 286.40,-295.20"/>
    </edge>
    <edge id=":J33_7" function="internal">
        <lane id=":J33_7_0" index="0" speed="10.36" length="12.07" shape="313.60,-298.40 306.95,-299.35 302.36,-302.10"/>
    </edge>
    <edge id=":J33_17" function="internal">
        <lane id=":J33_17_0" index="0" speed="10.36" length="12.44" shape="302.36,-302.10 302.20,-302.20 299.35,-306.95 298.40,-313.60"/>
    </edge>
    <edge id=":J33_8" function="internal">
        <lane id=":J33_8_0" index="0" speed="6.51" length="9.03" shape="308.00,-313.60 308.35,-311.15 309.40,-309.40 311.15,-308.35 313.60,-308.00"/>
    </edge>
    <edge id=":J33_9" function="internal">
        <lane id=":J33_9_0" index="0" speed="13.89" length="27.20" shape="308.00,-313.60 308.00,-286.40"/>
        <lane id=":J33_9_1" index="1" speed="13.89" length="27.20" shape="304.80,-313.60 304.80,-286.40"/>
    </edge>
    <edge id=":J33_11" function="internal">