<configuration>
    <input>
        <net-file value="3x3_train.net.xml"/>
        <route-files value="3x3_medium.rou.xml"/>
    </input>
    <processing>
        <lateral-resolution value="1" />
        <waiting-time-memory value="4000" />
    </processing>
</configuration>