<?xml version="1.0" encoding="UTF-8"?>

<!-- generated on 2025-01-22 19:26:33.540216 by randomTrips.py v1_20_0+0002-343658e7c64
<configuration>
    <net-file value="3x3.net.xml"/>
    <output-trip-file value="trips.trips.xml"/>
    <route-file value="3x3_low.rou.xml"/>
    <trip-attributes value="departSpeed='max'"/>
    <fringe-factor value="max"/>
    <random value="True"/>
    <insertion-density value="100.0"/>
</configuration>
-->

<!-- generated on 2025-01-22 19:26:33 by Eclipse SUMO duarouter Version 1.20.0
<configuration xmlns:xsi="http://www.w3.org/2001/XMLSchema-instance" xsi:noNamespaceSchemaLocation="http://sumo.dlr.de/xsd/duarouterConfiguration.xsd">

    <input>
        <net-file value="3x3.net.xml"/>
        <route-files value="trips.trips.xml"/>
    </input>

    <output>
        <output-file value="3x3_low.rou.xml"/>
        <alternatives-output value="NUL"/>
    </output>

    <time>
        <begin value="0"/>
        <end value="3600.0"/>
    </time>

    <report>
        <no-warnings value="true"/>
        <ignore-errors value="true"/>
        <no-step-log value="true"/>
    </report>

</configuration>
-->

<routes xmlns:xsi="http://www.w3.org/2001/XMLSchema-instance" xsi:noNamespaceSchemaLocation="http://sumo.dlr.de/xsd/routes_file.xsd">
    <vehicle id="0" depart="0.00" departSpeed="max">
        <route edges="E43_33 E33_32 E32_31 E31_30"/>
    </vehicle>
    <vehicle id="1" depart="0.89" departSpeed="max">
        <route edges="E30_31 E31_21 E21_22 E22_32 E32_31 E31_30"/>
    </vehicle>
    <vehicle id="2" depart="1.79" departSpeed="max">
        <route edges="E43_33 E33_34"/>
    </vehicle>
    <vehicle id="3" depart="2.68" departSpeed="max">
        <route edges="E14_13 E13_23 E23_33 E33_43"/>
    </vehicle>
    <vehicle id="4" depart="3.58" departSpeed="max">
        <route edges="E34_33 E33_32 E32_31 E31_30"/>
    </vehicle>
    <vehicle id="5" depart="4.47" departSpeed="max">
        <route edges="E03_13 E13_12 E12_11 E11_01"/>
    </vehicle>
    <vehicle id="6" depart="5.36" departSpeed="max">
        <route edges="E24_23 E23_33 E33_32 E32_31 E31_30"/>
    </vehicle>
    <vehicle id="7" depart="6.26" departSpeed="max">
        <route edges="E10_11 E11_21 E21_22 E22_23 E23_24"/>
    </vehicle>
    <vehicle id="8" depart="7.15" departSpeed="max">
        <route edges="E24_23 E23_33 E33_34"/>
    </vehicle>
    <vehicle id="9" depart="8.05" departSpeed="max">
        <route edges="E43_33 E33_23 E23_22 E22_21 E21_20"/>
    </vehicle>
    <vehicle id="10" depart="8.94" departSpeed="max">
        <route edges="E20_21 E21_22 E22_23 E23_24"/>
    </vehicle>
    <vehicle id="11" depart="9.84" departSpeed="max">
        <route edges="E14_13 E13_03"/>
    </vehicle>
    <vehicle id="12" depart="10.73" departSpeed="max">
        <route edges="E01_11 E11_21 E21_31 E31_41"/>
    </vehicle>
    <vehicle id="13" depart="11.62" departSpeed="max">
        <route edges="E43_33 E33_32 E32_22 E22_12 E12_02"/>
    </vehicle>
    <vehicle id="14" depart="12.52" departSpeed="max">
        <route edges="E34_33 E33_32 E32_31 E31_21 E21_11 E11_10"/>
    </vehicle>
    <vehicle id="15" depart="13.41" departSpeed="max">
        <route edges="E34_33 E33_23 E23_13 E13_14"/>
    </vehicle>
    <vehicle id="16" depart="14.31" departSpeed="max">
        <route edges="E03_13 E13_23 E23_24"/>
    </vehicle>
    <vehicle id="17" depart="15.20" departSpeed="max">
        <route edges="E03_13 E13_12 E12_11 E11_10"/>
    </vehicle>
    <vehicle id="18" depart="16.09" departSpeed="max">
        <route edges="E41_31 E31_21 E21_22 E22_32 E32_31 E31_41"/>
    </vehicle>
    <vehicle id="19" depart="16.99" departSpeed="max">
        <route edges="E03_13 E13_23 E23_24"/>
    </vehicle>
    <vehicle id="20" depart="17.88" departSpeed="max">
        <route edges="E41_31 E31_32 E32_33 E33_43"/>
    </vehicle>
    <vehicle id="21" depart="18.78" departSpeed="max">
        <route edges="E20_21 E21_22 E22_32 E32_42"/>
    </vehicle>
    <vehicle id="22" depart="19.67" departSpeed="max">
        <route edges="E34_33 E33_23 E23_13 E13_14"/>
    </vehicle>
    <vehicle id="23" depart="20.57" departSpeed="max">
        <route edges="E03_13 E13_23 E23_33 E33_43"/>
    </vehicle>
    <vehicle id="24" depart="21.46" departSpeed="max">
        <route edges="E34_33 E33_32 E32_31 E31_21 E21_11 E11_10"/>
    </vehicle>
    <vehicle id="25" depart="22.35" departSpeed="max">
        <route edges="E43_33 E33_23 E23_24"/>
    </vehicle>
    <vehicle id="26" depart="23.25" departSpeed="max">
        <route edges="E02_12 E12_13 E13_23 E23_22 E22_12 E12_02"/>
    </vehicle>
    <vehicle id="27" depart="24.14" departSpeed="max">
        <route edges="E03_13 E13_23 E23_33 E33_34"/>
    </vehicle>
    <vehicle id="28" depart="25.04" departSpeed="max">
        <route edges="E34_33 E33_32 E32_22 E22_23 E23_33 E33_34"/>
    </vehicle>
    <vehicle id="29" depart="25.93" departSpeed="max">
        <route edges="E20_21 E21_22 E22_23 E23_24"/>
    </vehicle>
    <vehicle id="30" depart="26.82" departSpeed="max">
        <route edges="E14_13 E13_12 E12_11 E11_21 E21_31 E31_41"/>
    </vehicle>
    <vehicle id="31" depart="27.72" departSpeed="max">
        <route edges="E34_33 E33_43"/>
    </vehicle>
    <vehicle id="32" depart="28.61" departSpeed="max">
        <route edges="E24_23 E23_13 E13_03"/>
    </vehicle>
    <vehicle id="33" depart="29.51" departSpeed="max">
        <route edges="E43_33 E33_23 E23_13 E13_03"/>
    </vehicle>
    <vehicle id="34" depart="30.40" departSpeed="max">
        <route edges="E01_11 E11_21 E21_22 E22_23 E23_24"/>
    </vehicle>
    <vehicle id="35" depart="31.29" departSpeed="max">
        <route edges="E43_33 E33_32 E32_22 E22_12 E12_02"/>
    </vehicle>
    <vehicle id="36" depart="32.19" departSpeed="max">
        <route edges="E02_12 E12_13 E13_03"/>
    </vehicle>
    <vehicle id="37" depart="33.08" departSpeed="max">
        <route edges="E10_11 E11_01"/>
    </vehicle>
    <vehicle id="38" depart="33.98" departSpeed="max">
        <route edges="E43_33 E33_32 E32_22 E22_12 E12_02"/>
    </vehicle>
    <vehicle id="39" depart="34.87" departSpeed="max">
        <route edges="E01_11 E11_21 E21_31 E31_41"/>
    </vehicle>
    <vehicle id="40" depart="35.77" departSpeed="max">
        <route edges="E24_23 E23_33 E33_43"/>
    </vehicle>
    <vehicle id="41" depart="36.66" departSpeed="max">
        <route edges="E41_31 E31_21 E21_22 E22_32 E32_31 E31_41"/>
    </vehicle>
    <vehicle id="42" depart="37.55" departSpeed="max">
        <route edges="E14_13 E13_23 E23_24"/>
    </vehicle>
    <vehicle id="43" depart="38.45" departSpeed="max">
        <route edges="E42_32 E32_22 E22_21 E21_20"/>
    </vehicle>
    <vehicle id="44" depart="39.34" departSpeed="max">
        <route edges="E30_31 E31_21 E21_11 E11_12 E12_13 E13_14"/>
    </vehicle>
    <vehicle id="45" depart="40.24" departSpeed="max">
        <route edges="E02_12 E12_22 E22_21 E21_20"/>
    </vehicle>
    <vehicle id="46" depart="41.13" departSpeed="max">
        <route edges="E30_31 E31_32 E32_42"/>
    </vehicle>
    <vehicle id="47" depart="42.02" departSpeed="max">
        <route edges="E10_11 E11_01"/>
    </vehicle>
    <vehicle id="48" depart="42.92" departSpeed="max">
        <route edges="E20_21 E21_22 E22_12 E12_02"/>
    </vehicle>
    <vehicle id="49" depart="43.81" departSpeed="max">
        <route edges="E42_32 E32_22 E22_23 E23_24"/>
    </vehicle>
    <vehicle id="50" depart="44.71" departSpeed="max">
        <route edges="E14_13 E13_23 E23_33 E33_34"/>
    </vehicle>
    <vehicle id="51" depart="45.60" departSpeed="max">
        <route edges="E02_12 E12_13 E13_03"/>
    </vehicle>
    <vehicle id="52" depart="46.49" departSpeed="max">
        <route edges="E34_33 E33_23 E23_22 E22_21 E21_20"/>
    </vehicle>
    <vehicle id="53" depart="47.39" departSpeed="max">
        <route edges="E20_21 E21_11 E11_10"/>
    </vehicle>
    <vehicle id="54" depart="48.28" departSpeed="max">
        <route edges="E43_33 E33_23 E23_13 E13_03"/>
    </vehicle>
    <vehicle id="55" depart="49.18" departSpeed="max">
        <route edges="E41_31 E31_21 E21_22 E22_23 E23_24"/>
    </vehicle>
    <vehicle id="56" depart="50.07" departSpeed="max">
        <route edges="E02_12 E12_13 E13_23 E23_33 E33_43"/>
    </vehicle>
    <vehicle id="57" depart="50.97" departSpeed="max">
        <route edges="E41_31 E31_21 E21_22 E22_23 E23_24"/>
    </vehicle>
    <vehicle id="58" depart="51.86" departSpeed="max">
        <route edges="E24_23 E23_33 E33_34"/>
    </vehicle>
    <vehicle id="59" depart="52.75" departSpeed="max">
        <route edges="E10_11 E11_12 E12_22 E22_32 E32_42"/>
    </vehicle>
    <vehicle id="60" depart="53.65" departSpeed="max">
        <route edges="E24_23 E23_33 E33_32 E32_31 E31_30"/>
    </vehicle>
    <vehicle id="61" depart="54.54" departSpeed="max">
        <route edges="E43_33 E33_23 E23_22 E22_21 E21_20"/>
    </vehicle>
    <vehicle id="62" depart="55.44" departSpeed="max">
        <route edges="E30_31 E31_41"/>
    </vehicle>
    <vehicle id="63" depart="56.33" departSpeed="max">
        <route edges="E43_33 E33_34"/>
    </vehicle>
    <vehicle id="64" depart="57.22" departSpeed="max">
        <route edges="E42_32 E32_33 E33_43"/>
    </vehicle>
    <vehicle id="65" depart="58.12" departSpeed="max">
        <route edges="E01_11 E11_12 E12_22 E22_32 E32_42"/>
    </vehicle>
    <vehicle id="66" depart="59.01" departSpeed="max">
        <route edges="E20_21 E21_11 E11_12 E12_13 E13_14"/>
    </vehicle>
    <vehicle id="67" depart="59.91" departSpeed="max">
        <route edges="E24_23 E23_22 E22_21 E21_31 E31_41"/>
    </vehicle>
    <vehicle id="68" depart="60.80" departSpeed="max">
        <route edges="E34_33 E33_32 E32_31 E31_21 E21_11 E11_01"/>
    </vehicle>
    <vehicle id="69" depart="61.70" departSpeed="max">
        <route edges="E01_11 E11_21 E21_20"/>
    </vehicle>
    <vehicle id="70" depart="62.59" departSpeed="max">
        <route edges="E41_31 E31_32 E32_22 E22_12 E12_02"/>
    </vehicle>
    <vehicle id="71" depart="63.48" departSpeed="max">
        <route edges="E20_21 E21_11 E11_10"/>
    </vehicle>
    <vehicle id="72" depart="64.38" departSpeed="max">
        <route edges="E01_11 E11_12 E12_13 E13_03"/>
    </vehicle>
    <vehicle id="73" depart="65.27" departSpeed="max">
        <route edges="E41_31 E31_21 E21_22 E22_32 E32_31 E31_41"/>
    </vehicle>
    <vehicle id="74" depart="66.17" departSpeed="max">
        <route edges="E43_33 E33_23 E23_13 E13_12 E12_11 E11_10"/>
    </vehicle>
    <vehicle id="75" depart="67.06" departSpeed="max">
        <route edges="E34_33 E33_32 E32_31 E31_21 E21_11 E11_01"/>
    </vehicle>
    <vehicle id="76" depart="67.95" departSpeed="max">
        <route edges="E24_23 E23_22 E22_12 E12_02"/>
    </vehicle>
    <vehicle id="77" depart="68.85" departSpeed="max">
        <route edges="E01_11 E11_10"/>
    </vehicle>
    <vehicle id="78" depart="69.74" departSpeed="max">
        <route edges="E34_33 E33_32 E32_31 E31_21 E21_11 E11_10"/>
    </vehicle>
    <vehicle id="79" depart="70.64" departSpeed="max">
        <route edges="E30_31 E31_21 E21_11 E11_12 E12_13 E13_14"/>
    </vehicle>
    <vehicle id="80" depart="71.53" departSpeed="max">
        <route edges="E41_31 E31_30"/>
    </vehicle>
    <vehicle id="81" depart="72.42" departSpeed="max">
        <route edges="E30_31 E31_32 E32_22 E22_12 E12_02"/>
    </vehicle>
    <vehicle id="82" depart="73.32" departSpeed="max">
        <route edges="E10_11 E11_21 E21_20"/>
    </vehicle>
    <vehicle id="83" depart="74.21" departSpeed="max">
        <route edges="E30_31 E31_32 E32_33 E33_23 E23_13 E13_03"/>
    </vehicle>
    <vehicle id="84" depart="75.11" departSpeed="max">
        <route edges="E14_13 E13_23 E23_33 E33_32 E32_31 E31_30"/>
    </vehicle>
    <vehicle id="85" depart="76.00" departSpeed="max">
        <route edges="E24_23 E23_33 E33_34"/>
    </vehicle>
    <vehicle id="86" depart="76.90" departSpeed="max">
        <route edges="E01_11 E11_12 E12_13 E13_03"/>
    </vehicle>
    <vehicle id="87" depart="77.79" departSpeed="max">
        <route edges="E01_11 E11_10"/>
    </vehicle>
    <vehicle id="88" depart="78.68" departSpeed="max">
        <route edges="E30_31 E31_21 E21_22 E22_32 E32_31 E31_30"/>
    </vehicle>
    <vehicle id="89" depart="79.58" departSpeed="max">
        <route edges="E01_11 E11_21 E21_31 E31_30"/>
    </vehicle>
    <vehicle id="90" depart="80.47" departSpeed="max">
        <route edges="E14_13 E13_03"/>
    </vehicle>
    <vehicle id="91" depart="81.37" departSpeed="max">
        <route edges="E02_12 E12_13 E13_03"/>
    </vehicle>
    <vehicle id="92" depart="82.26" departSpeed="max">
        <route edges="E42_32 E32_22 E22_12 E12_11 E11_10"/>
    </vehicle>
    <vehicle id="93" depart="83.15" departSpeed="max">
        <route edges="E34_33 E33_23 E23_13 E13_14"/>
    </vehicle>
    <vehicle id="94" depart="84.05" departSpeed="max">
        <route edges="E30_31 E31_32 E32_33 E33_43"/>
    </vehicle>
    <vehicle id="95" depart="84.94" departSpeed="max">
        <route edges="E41_31 E31_32 E32_33 E33_43"/>
    </vehicle>
    <vehicle id="96" depart="85.84" departSpeed="max">
        <route edges="E34_33 E33_32 E32_42"/>
    </vehicle>
    <vehicle id="97" depart="86.73" departSpeed="max">
        <route edges="E30_31 E31_32 E32_33 E33_23 E23_13 E13_03"/>
    </vehicle>
    <vehicle id="98" depart="87.63" departSpeed="max">
        <route edges="E02_12 E12_11 E11_10"/>
    </vehicle>
    <vehicle id="99" depart="88.52" departSpeed="max">
        <route edges="E30_31 E31_21 E21_11 E11_01"/>
    </vehicle>
    <vehicle id="100" depart="89.41" departSpeed="max">
        <route edges="E10_11 E11_12 E12_13 E13_03"/>
    </vehicle>
    <vehicle id="101" depart="90.31" departSpeed="max">
        <route edges="E24_23 E23_33 E33_32 E32_31 E31_30"/>
    </vehicle>
    <vehicle id="102" depart="91.20" departSpeed="max">
        <route edges="E34_33 E33_32 E32_22 E22_23 E23_33 E33_34"/>
    </vehicle>
    <vehicle id="103" depart="92.10" departSpeed="max">
        <route edges="E01_11 E11_12 E12_13 E13_23 E23_33 E33_43"/>
    </vehicle>
    <vehicle id="104" depart="92.99" departSpeed="max">
        <route edges="E02_12 E12_22 E22_32 E32_31 E31_30"/>
    </vehicle>
    <vehicle id="105" depart="93.88" departSpeed="max">
        <route edges="E41_31 E31_21 E21_22 E22_32 E32_31 E31_41"/>
    </vehicle>
    <vehicle id="106" depart="94.78" departSpeed="max">
        <route edges="E24_23 E23_33 E33_43"/>
    </vehicle>
    <vehicle id="107" depart="95.67" departSpeed="max">
        <route edges="E41_31 E31_30"/>
    </vehicle>
    <vehicle id="108" depart="96.57" departSpeed="max">
        <route edges="E01_11 E11_12 E12_02"/>
    </vehicle>
    <vehicle id="109" depart="97.46" departSpeed="max">
        <route edges="E03_13 E13_23 E23_33 E33_34"/>
    </vehicle>
    <vehicle id="110" depart="98.35" departSpeed="max">
        <route edges="E10_11 E11_12 E12_22 E22_21 E21_11 E11_10"/>
    </vehicle>
    <vehicle id="111" depart="99.25" departSpeed="max">
        <route edges="E24_23 E23_33 E33_34"/>
    </vehicle>
    <vehicle id="112" depart="100.14" departSpeed="max">
        <route edges="E43_33 E33_23 E23_13 E13_14"/>
    </vehicle>
    <vehicle id="113" depart="101.04" departSpeed="max">
        <route edges="E34_33 E33_32 E32_31 E31_41"/>
    </vehicle>
    <vehicle id="114" depart="101.93" departSpeed="max">
        <route edges="E01_11 E11_10"/>
    </vehicle>
    <vehicle id="115" depart="102.83" departSpeed="max">
        <route edges="E20_21 E21_31 E31_41"/>
    </vehicle>
    <vehicle id="116" depart="103.72" departSpeed="max">
        <route edges="E30_31 E31_32 E32_33 E33_43"/>
    </vehicle>
    <vehicle id="117" depart="104.61" departSpeed="max">
        <route edges="E03_13 E13_23 E23_33 E33_32 E32_31 E31_41"/>
    </vehicle>
    <vehicle id="118" depart="105.51" departSpeed="max">
        <route edges="E20_21 E21_11 E11_01"/>
    </vehicle>
    <vehicle id="119" depart="106.40" departSpeed="max">
        <route edges="E03_13 E13_23 E23_33 E33_32 E32_31 E31_30"/>
    </vehicle>
    <vehicle id="120" depart="107.30" departSpeed="max">
        <route edges="E30_31 E31_21 E21_22 E22_32 E32_31 E31_30"/>
    </vehicle>
    <vehicle id="121" depart="108.19" departSpeed="max">
        <route edges="E42_32 E32_22 E22_12 E12_02"/>
    </vehicle>
    <vehicle id="122" depart="109.08" departSpeed="max">
        <route edges="E14_13 E13_23 E23_22 E22_21 E21_20"/>
    </vehicle>
    <vehicle id="123" depart="109.98" departSpeed="max">
        <route edges="E24_23 E23_22 E22_21 E21_11 E11_01"/>
    </vehicle>
    <vehicle id="124" depart="110.87" departSpeed="max">
        <route edges="E42_32 E32_31 E31_41"/>
    </vehicle>
    <vehicle id="125" depart="111.77" departSpeed="max">
        <route edges="E14_13 E13_12 E12_11 E11_21 E21_31 E31_41"/>
    </vehicle>
    <vehicle id="126" depart="112.66" departSpeed="max">
        <route edges="E20_21 E21_31 E31_41"/>
    </vehicle>
    <vehicle id="127" depart="113.56" departSpeed="max">
        <route edges="E41_31 E31_21 E21_22 E22_23 E23_24"/>
    </vehicle>
    <vehicle id="128" depart="114.45" departSpeed="max">
        <route edges="E41_31 E31_21 E21_11 E11_12 E12_13 E13_03"/>
    </vehicle>
    <vehicle id="129" depart="115.34" departSpeed="max">
        <route edges="E03_13 E13_12 E12_11 E11_10"/>
    </vehicle>
    <vehicle id="130" depart="116.24" departSpeed="max">
        <route edges="E24_23 E23_13 E13_12 E12_11 E11_10"/>
    </vehicle>
    <vehicle id="131" depart="117.13" departSpeed="max">
        <route edges="E41_31 E31_21 E21_22 E22_32 E32_31 E31_41"/>
    </vehicle>
    <vehicle id="132" depart="118.03" departSpeed="max">
        <route edges="E14_13 E13_23 E23_22 E22_21 E21_20"/>
    </vehicle>
    <vehicle id="133" depart="118.92" departSpeed="max">
        <route edges="E41_31 E31_21 E21_11 E11_12 E12_13 E13_03"/>
    </vehicle>
    <vehicle id="134" depart="119.81" departSpeed="max">
        <route edges="E03_13 E13_23 E23_33 E33_43"/>
    </vehicle>
    <vehicle id="135" depart="120.71" departSpeed="max">
        <route edges="E03_13 E13_23 E23_22 E22_12 E12_13 E13_03"/>
    </vehicle>
    <vehicle id="136" depart="121.60" departSpeed="max">
        <route edges="E03_13 E13_23 E23_33 E33_32 E32_31 E31_41"/>
    </vehicle>
    <vehicle id="137" depart="122.50" departSpeed="max">
        <route edges="E03_13 E13_12 E12_11 E11_10"/>
    </vehicle>
    <vehicle id="138" depart="123.39" departSpeed="max">
        <route edges="E42_32 E32_31 E31_30"/>
    </vehicle>
    <vehicle id="139" depart="124.28" departSpeed="max">
        <route edges="E14_13 E13_03"/>
    </vehicle>
    <vehicle id="140" depart="125.18" departSpeed="max">
        <route edges="E43_33 E33_32 E32_22 E22_12 E12_02"/>
    </vehicle>
    <vehicle id="141" depart="126.07" departSpeed="max">
        <route edges="E03_13 E13_12 E12_11 E11_01"/>
    </vehicle>
    <vehicle id="142" depart="126.97" departSpeed="max">
        <route edges="E14_13 E13_23 E23_33 E33_32 E32_31 E31_30"/>
    </vehicle>
    <vehicle id="143" depart="127.86" departSpeed="max">
        <route edges="E24_23 E23_22 E22_12 E12_02"/>
    </vehicle>
    <vehicle id="144" depart="128.76" departSpeed="max">
        <route edges="E30_31 E31_21 E21_11 E11_10"/>
    </vehicle>
    <vehicle id="145" depart="129.65" departSpeed="max">
        <route edges="E20_21 E21_31 E31_41"/>
    </vehicle>
    <vehicle id="146" depart="130.54" departSpeed="max">
        <route edges="E14_13 E13_12 E12_11 E11_01"/>
    </vehicle>
    <vehicle id="147" depart="131.44" departSpeed="max">
        <route edges="E14_13 E13_03"/>
    </vehicle>
    <vehicle id="148" depart="132.33" departSpeed="max">
        <route edges="E30_31 E31_32 E32_33 E33_23 E23_13 E13_03"/>
    </vehicle>
    <vehicle id="149" depart="133.23" departSpeed="max">
        <route edges="E24_23 E23_33 E33_43"/>
    </vehicle>
    <vehicle id="150" depart="134.12" departSpeed="max">
        <route edges="E30_31 E31_21 E21_11 E11_01"/>
    </vehicle>
    <vehicle id="151" depart="135.01" departSpeed="max">
        <route edges="E10_11 E11_12 E12_02"/>
    </vehicle>
    <vehicle id="152" depart="135.91" departSpeed="max">
        <route edges="E43_33 E33_32 E32_22 E22_23 E23_33 E33_43"/>
    </vehicle>
    <vehicle id="153" depart="136.80" departSpeed="max">
        <route edges="E03_13 E13_12 E12_11 E11_01"/>
    </vehicle>
    <vehicle id="154" depart="137.70" departSpeed="max">
        <route edges="E24_23 E23_13 E13_03"/>
    </vehicle>
    <vehicle id="155" depart="138.59" departSpeed="max">
        <route edges="E10_11 E11_12 E12_22 E22_32 E32_42"/>
    </vehicle>
    <vehicle id="156" depart="139.48" departSpeed="max">
        <route edges="E30_31 E31_32 E32_33 E33_34"/>
    </vehicle>
    <vehicle id="157" depart="140.38" departSpeed="max">
        <route edges="E41_31 E31_21 E21_11 E11_12 E12_13 E13_14"/>
    </vehicle>
    <vehicle id="158" depart="141.27" departSpeed="max">
        <route edges="E42_32 E32_31 E31_21 E21_11 E11_01"/>
    </vehicle>
    <vehicle id="159" depart="142.17" departSpeed="max">
        <route edges="E43_33 E33_23 E23_13 E13_12 E12_11 E11_10"/>
    </vehicle>
    <vehicle id="160" depart="143.06" departSpeed="max">
        <route edges="E34_33 E33_32 E32_31 E31_30"/>
    </vehicle>
    <vehicle id="161" depart="143.96" departSpeed="max">
        <route edges="E03_13 E13_23 E23_22 E22_21 E21_20"/>
    </vehicle>
    <vehicle id="162" depart="144.85" departSpeed="max">
        <route edges="E34_33 E33_32 E32_31 E31_21 E21_11 E11_01"/>
    </vehicle>
    <vehicle id="163" depart="145.74" departSpeed="max">
        <route edges="E02_12 E12_22 E22_23 E23_24"/>
    </vehicle>
    <vehicle id="164" depart="146.64" departSpeed="max">
        <route edges="E34_33 E33_32 E32_31 E31_30"/>
    </vehicle>
    <vehicle id="165" depart="147.53" departSpeed="max">
        <route edges="E01_11 E11_12 E12_22 E22_32 E32_42"/>
    </vehicle>
    <vehicle id="166" depart="148.43" departSpeed="max">
        <route edges="E30_31 E31_21 E21_11 E11_10"/>
    </vehicle>
    <vehicle id="167" depart="149.32" departSpeed="max">
        <route edges="E01_11 E11_21 E21_31 E31_30"/>
    </vehicle>
    <vehicle id="168" depart="150.21" departSpeed="max">
        <route edges="E24_23 E23_22 E22_21 E21_11 E11_01"/>
    </vehicle>
    <vehicle id="169" depart="151.11" departSpeed="max">
        <route edges="E41_31 E31_32 E32_33 E33_43"/>
    </vehicle>
    <vehicle id="170" depart="152.00" departSpeed="max">
        <route edges="E02_12 E12_22 E22_21 E21_20"/>
    </vehicle>
    <vehicle id="171" depart="152.90" departSpeed="max">
        <route edges="E41_31 E31_21 E21_11 E11_12 E12_13 E13_14"/>
    </vehicle>
    <vehicle id="172" depart="153.79" departSpeed="max">
        <route edges="E24_23 E23_33 E33_32 E32_31 E31_30"/>
    </vehicle>
    <vehicle id="173" depart="154.69" departSpeed="max">
        <route edges="E34_33 E33_32 E32_31 E31_30"/>
    </vehicle>
    <vehicle id="174" depart="155.58" departSpeed="max">
        <route edges="E42_32 E32_22 E22_12 E12_11 E11_10"/>
    </vehicle>
    <vehicle id="175" depart="156.47" departSpeed="max">
        <route edges="E03_13 E13_12 E12_02"/>
    </vehicle>
    <vehicle id="176" depart="157.37" departSpeed="max">
        <route edges="E34_33 E33_32 E32_31 E31_21 E21_11 E11_10"/>
    </vehicle>
    <vehicle id="177" depart="158.26" departSpeed="max">
        <route edges="E24_23 E23_13 E13_12 E12_11 E11_10"/>
    </vehicle>
    <vehicle id="178" depart="159.16" departSpeed="max">
        <route edges="E14_13 E13_12 E12_22 E22_32 E32_42"/>
    </vehicle>
    <vehicle id="179" depart="160.05" departSpeed="max">
        <route edges="E30_31 E31_32 E32_42"/>
    </vehicle>
    <vehicle id="180" depart="160.94" departSpeed="max">
        <route edges="E01_11 E11_12 E12_22 E22_21 E21_11 E11_01"/>
    </vehicle>
    <vehicle id="181" depart="161.84" departSpeed="max">
        <route edges="E24_23 E23_22 E22_32 E32_42"/>
    </vehicle>
    <vehicle id="182" depart="162.73" departSpeed="max">
        <route edges="E34_33 E33_32 E32_22 E22_23 E23_33 E33_34"/>
    </vehicle>
    <vehicle id="183" depart="163.63" departSpeed="max">
        <route edges="E34_33 E33_32 E32_42"/>
    </vehicle>
    <vehicle id="184" depart="164.52" departSpeed="max">
        <route edges="E01_11 E11_21 E21_31 E31_41"/>
    </vehicle>
    <vehicle id="185" depart="165.41" departSpeed="max">
        <route edges="E42_32 E32_33 E33_43"/>
    </vehicle>
    <vehicle id="186" depart="166.31" departSpeed="max">
        <route edges="E02_12 E12_11 E11_10"/>
    </vehicle>
    <vehicle id="187" depart="167.20" departSpeed="max">
        <route edges="E02_12 E12_11 E11_01"/>
    </vehicle>
    <vehicle id="188" depart="168.10" departSpeed="max">
        <route edges="E14_13 E13_12 E12_11 E11_10"/>
    </vehicle>
    <vehicle id="189" depart="168.99" departSpeed="max">
        <route edges="E43_33 E33_23 E23_13 E13_12 E12_11 E11_10"/>
    </vehicle>
    <vehicle id="190" depart="169.89" departSpeed="max">
        <route edges="E14_13 E13_23 E23_33 E33_32 E32_31 E31_30"/>
    </vehicle>
    <vehicle id="191" depart="170.78" departSpeed="max">
        <route edges="E24_23 E23_22 E22_21 E21_11 E11_01"/>
    </vehicle>
    <vehicle id="192" depart="171.67" departSpeed="max">
        <route edges="E24_23 E23_22 E22_12 E12_02"/>
    </vehicle>
    <vehicle id="193" depart="172.57" departSpeed="max">
        <route edges="E30_31 E31_21 E21_22 E22_23 E23_24"/>
    </vehicle>
    <vehicle id="194" depart="173.46" departSpeed="max">
        <route edges="E34_33 E33_32 E32_31 E31_21 E21_11 E11_01"/>
    </vehicle>
    <vehicle id="195" depart="174.36" departSpeed="max">
        <route edges="E24_23 E23_22 E22_21 E21_31 E31_41"/>
    </vehicle>
    <vehicle id="196" depart="175.25" departSpeed="max">
        <route edges="E14_13 E13_23 E23_33 E33_34"/>
    </vehicle>
    <vehicle id="197" depart="176.14" departSpeed="max">
        <route edges="E24_23 E23_22 E22_32 E32_42"/>
    </vehicle>
    <vehicle id="198" depart="177.04" departSpeed="max">
        <route edges="E42_32 E32_33 E33_43"/>
    </vehicle>
    <vehicle id="199" depart="177.93" departSpeed="max">
        <route edges="E43_33 E33_32 E32_31 E31_21 E21_11 E11_01"/>
    </vehicle>
    <vehicle id="200" depart="178.83" departSpeed="max">
        <route edges="E02_12 E12_11 E11_01"/>
    </vehicle>
    <vehicle id="201" depart="179.72" departSpeed="max">
        <route edges="E30_31 E31_21 E21_22 E22_32 E32_31 E31_30"/>
    </vehicle>
    <vehicle id="202" depart="180.62" departSpeed="max">
        <route edges="E02_12 E12_22 E22_21 E21_20"/>
    </vehicle>
    <vehicle id="203" depart="181.51" departSpeed="max">
        <route edges="E14_13 E13_12 E12_22 E22_32 E32_42"/>
    </vehicle>
    <vehicle id="204" depart="182.40" departSpeed="max">
        <route edges="E14_13 E13_23 E23_33 E33_34"/>
    </vehicle>
    <vehicle id="205" depart="183.30" departSpeed="max">
        <route edges="E43_33 E33_32 E32_42"/>
    </vehicle>
    <vehicle id="206" depart="184.19" departSpeed="max">
        <route edges="E01_11 E11_21 E21_22 E22_23 E23_24"/>
    </vehicle>
    <vehicle id="207" depart="185.09" departSpeed="max">
        <route edges="E20_21 E21_22 E22_23 E23_33 E33_43"/>
    </vehicle>
    <vehicle id="208" depart="185.98" departSpeed="max">
        <route edges="E10_11 E11_21 E21_20"/>
    </vehicle>
    <vehicle id="209" depart="186.87" departSpeed="max">
        <route edges="E34_33 E33_43"/>
    </vehicle>
    <vehicle id="210" depart="187.77" departSpeed="max">
        <route edges="E14_13 E13_23 E23_33 E33_43"/>
    </vehicle>
    <vehicle id="211" depart="188.66" departSpeed="max">
        <route edges="E43_33 E33_23 E23_13 E13_03"/>
    </vehicle>
    <vehicle id="212" depart="189.56" departSpeed="max">
        <route edges="E41_31 E31_32 E32_42"/>
    </vehicle>
    <vehicle id="213" depart="190.45" departSpeed="max">
        <route edges="E42_32 E32_22 E22_23 E23_24"/>
    </vehicle>
    <vehicle id="214" depart="191.34" departSpeed="max">
        <route edges="E24_23 E23_33 E33_43"/>
    </vehicle>
    <vehicle id="215" depart="192.24" departSpeed="max">
        <route edges="E30_31 E31_32 E32_33 E33_23 E23_13 E13_03"/>
    </vehicle>
    <vehicle id="216" depart="193.13" departSpeed="max">
        <route edges="E20_21 E21_22 E22_32 E32_42"/>
    </vehicle>
    <vehicle id="217" depart="194.03" departSpeed="max">
        <route edges="E34_33 E33_23 E23_13 E13_14"/>
    </vehicle>
    <vehicle id="218" depart="194.92" departSpeed="max">
        <route edges="E20_21 E21_11 E11_12 E12_22 E22_21 E21_20"/>
    </vehicle>
    <vehicle id="219" depart="195.82" departSpeed="max">
        <route edges="E01_11 E11_12 E12_22 E22_32 E32_42"/>
    </vehicle>
    <vehicle id="220" depart="196.71" departSpeed="max">
        <route edges="E43_33 E33_23 E23_22 E22_21 E21_20"/>
    </vehicle>
    <vehicle id="221" depart="197.60" departSpeed="max">
        <route edges="E30_31 E31_32 E32_22 E22_12 E12_02"/>
    </vehicle>
    <vehicle id="222" depart="198.50" departSpeed="max">
        <route edges="E30_31 E31_21 E21_11 E11_12 E12_13 E13_14"/>
    </vehicle>
    <vehicle id="223" depart="199.39" departSpeed="max">
        <route edges="E30_31 E31_21 E21_20"/>
    </vehicle>
    <vehicle id="224" depart="200.29" departSpeed="max">
        <route edges="E03_13 E13_12 E12_11 E11_01"/>
    </vehicle>
    <vehicle id="225" depart="201.18" departSpeed="max">
        <route edges="E10_11 E11_12 E12_13 E13_03"/>
    </vehicle>
    <vehicle id="226" depart="202.07" departSpeed="max">
        <route edges="E01_11 E11_12 E12_13 E13_14"/>
    </vehicle>
    <vehicle id="227" depart="202.97" departSpeed="max">