<?xml version="1.0" encoding="UTF-8"?>

<!-- generated on 2025-01-23 02:27:57.157615 by randomTrips.py v1_20_0+0002-343658e7c64
<configuration>
    <net-file value="3x3.net.xml"/>
    <output-trip-file value="trips.trips.xml"/>
    <route-file value="3x3_medium.rou.xml"/>
    <trip-attributes value="departSpeed='max'"/>
    <fringe-factor value="max"/>
    <insertion-density value="180.0"/>
</configuration>
-->

<!-- generated on 2025-01-23 02:27:56 by Eclipse SUMO duarouter Version 1.20.0
<configuration xmlns:xsi="http://www.w3.org/2001/XMLSchema-instance" xsi:noNamespaceSchemaLocation="http://sumo.dlr.de/xsd/duarouterConfiguration.xsd">

    <input>
        <net-file value="3x3.net.xml"/>
        <route-files value="trips.trips.xml"/>
    </input>

    <output>
        <output-file value="3x3_medium.rou.xml"/>
        <alternatives-output value="NUL"/>
    </output>

    <time>
        <begin value="0"/>
        <end value="3600.0"/>
    </time>

    <report>
        <no-warnings value="true"/>
        <ignore-errors value="true"/>
        <no-step-log value="true"/>
    </report>

</configuration>
-->

<routes xmlns:xsi="http://www.w3.org/2001/XMLSchema-instance" xsi:noNamespaceSchemaLocation="http://sumo.dlr.de/xsd/routes_file.xsd">
    <vehicle id="0" depart="0.00" departSpeed="max">
        <route edges="E30_31 E31_21 E21_11 E11_01"/>
    </vehicle>
    <vehicle id="1" depart="0.50" departSpeed="max">
        <route edges="E10_11 E11_12 E12_02"/>
    </vehicle>
    <vehicle id="2" depart="0.99" departSpeed="max">
        <route edges="E34_33 E33_32 E32_31 E31_41"/>
    </vehicle>
    <vehicle id="3" depart="1.49" departSpeed="max">
        <route edges="E42_32 E32_22 E22_12 E12_11 E11_10"/>
    </vehicle>
    <vehicle id="4" depart="1.99" departSpeed="max">
        <route edges="E20_21 E21_11 E11_01"/>
    </vehicle>
    <vehicle id="5" depart="2.48" departSpeed="max">
        <route edges="E03_13 E13_23 E23_24"/>
    </vehicle>
    <vehicle id="6" depart="2.98" departSpeed="max">
        <route edges="E01_11 E11_12 E12_02"/>
    </vehicle>
    <vehicle id="7" depart="3.48" departSpeed="max">
        <route edges="E30_31 E31_21 E21_22 E22_23 E23_24"/>
    </vehicle>
    <vehicle id="8" depart="3.97" departSpeed="max">
        <route edges="E03_13 E13_23 E23_33 E33_32 E32_31 E31_30"/>
    </vehicle>
    <vehicle id="9" depart="4.47" departSpeed="max">
        <route edges="E41_31 E31_21 E21_11 E11_01"/>
    </vehicle>
    <vehicle id="10" depart="4.97" departSpeed="max">
        <route edges="E41_31 E31_21 E21_22 E22_32 E32_31 E31_41"/>
    </vehicle>
    <vehicle id="11" depart="5.46" departSpeed="max">
        <route edges="E14_13 E13_12 E12_11 E11_10"/>
    </vehicle>
    <vehicle id="12" depart="5.96" departSpeed="max">
        <route edges="E43_33 E33_23 E23_13 E13_14"/>
    </vehicle>
    <vehicle id="13" depart="6.46" departSpeed="max">
        <route edges="E02_12 E12_11 E11_10"/>
    </vehicle>
    <vehicle id="14" depart="6.95" departSpeed="max">
        <route edges="E42_32 E32_31 E31_30"/>
    </vehicle>
    <vehicle id="15" depart="7.45" departSpeed="max">
        <route edges="E41_31 E31_21 E21_22 E22_32 E32_31 E31_41"/>
    </vehicle>
    <vehicle id="16" depart="7.95" departSpeed="max">
        <route edges="E24_23 E23_33 E33_43"/>
    </vehicle>
    <vehicle id="17" depart="8.44" departSpeed="max">
        <route edges="E14_13 E13_23 E23_24"/>
    </vehicle>
    <vehicle id="18" depart="8.94" departSpeed="max">
        <route edges="E41_31 E31_30"/>
    </vehicle>
    <vehicle id="19" depart="9.44" departSpeed="max">
        <route edges="E42_32 E32_22 E22_23 E23_24"/>
    </vehicle>
    <vehicle id="20" depart="9.93" departSpeed="max">
        <route edges="E34_33 E33_32 E32_31 E31_21 E21_11 E11_01"/>
    </vehicle>
    <vehicle id="21" depart="10.43" departSpeed="max">
        <route edges="E03_13 E13_23 E23_22 E22_12 E12_13 E13_03"/>
    </vehicle>
    <vehicle id="22" depart="10.93" departSpeed="max">
        <route edges="E01_11 E11_12 E12_02"/>
    </vehicle>
    <vehicle id="23" depart="11.43" departSpeed="max">
        <route edges="E02_12 E12_13 E13_03"/>
    </vehicle>
    <vehicle id="24" depart="11.92" departSpeed="max">
        <route edges="E30_31 E31_21 E21_11 E11_12 E12_13 E13_14"/>
    </vehicle>
    <vehicle id="25" depart="12.42" departSpeed="max">
        <route edges="E14_13 E13_12 E12_02"/>
    </vehicle>
    <vehicle id="26" depart="12.92" departSpeed="max">
        <route edges="E10_11 E11_12 E12_13 E13_23 E23_33 E33_43"/>
    </vehicle>
    <vehicle id="27" depart="13.41" departSpeed="max">
        <route edges="E30_31 E31_21 E21_22 E22_32 E32_31 E31_30"/>
    </vehicle>
    <vehicle id="28" depart="13.91" departSpeed="max">
        <route edges="E03_13 E13_23 E23_33 E33_32 E32_31 E31_41"/>
    </vehicle>
    <vehicle id="29" depart="14.41" departSpeed="max">
        <route edges="E02_12 E12_13 E13_14"/>
    </vehicle>
    <vehicle id="30" depart="14.90" departSpeed="max">
        <route edges="E43_33 E33_32 E32_31 E31_30"/>
    </vehicle>
    <vehicle id="31" depart="15.40" departSpeed="max">
        <route edges="E24_23 E23_22 E22_21 E21_31 E31_41"/>
    </vehicle>
    <vehicle id="32" depart="15.90" departSpeed="max">
        <route edges="E42_32 E32_31 E31_21 E21_22 E22_32 E32_42"/>
    </vehicle>
    <vehicle id="33" depart="16.39" departSpeed="max">
        <route edges="E03_13 E13_12 E12_11 E11_01"/>
    </vehicle>
    <vehicle id="34" depart="16.89" departSpeed="max">
        <route edges="E10_11 E11_12 E12_13 E13_03"/>
    </vehicle>
    <vehicle id="35" depart="17.39" departSpeed="max">
        <route edges="E03_13 E13_23 E23_33 E33_43"/>
    </vehicle>
    <vehicle id="36" depart="17.88" departSpeed="max">
        <route edges="E42_32 E32_33 E33_23 E23_13 E13_03"/>
    </vehicle>
    <vehicle id="37" depart="18.38" departSpeed="max">
        <route edges="E30_31 E31_21 E21_11 E11_12 E12_13 E13_14"/>
    </vehicle>
    <vehicle id="38" depart="18.88" departSpeed="max">
        <route edges="E42_32 E32_22 E22_21 E21_20"/>
    </vehicle>
    <vehicle id="39" depart="19.37" departSpeed="max">
        <route edges="E10_11 E11_12 E12_02"/>
    </vehicle>
    <vehicle id="40" depart="19.87" departSpeed="max">
        <route edges="E24_23 E23_13 E13_03"/>
    </vehicle>
    <vehicle id="41" depart="20.37" departSpeed="max">
        <route edges="E30_31 E31_32 E32_33 E33_34"/>
    </vehicle>
    <vehicle id="42" depart="20.86" departSpeed="max">
        <route edges="E14_13 E13_12 E12_02"/>
    </vehicle>
    <vehicle id="43" depart="21.36" departSpeed="max">
        <route edges="E43_33 E33_23 E23_24"/>
    </vehicle>
    <vehicle id="44" depart="21.86" departSpeed="max">
        <route edges="E02_12 E12_11 E11_01"/>
    </vehicle>
    <vehicle id="45" depart="22.35" departSpeed="max">
        <route edges="E02_12 E12_22 E22_32 E32_31 E31_30"/>
    </vehicle>
    <vehicle id="46" depart="22.85" departSpeed="max">
        <route edges="E41_31 E31_21 E21_20"/>
    </vehicle>
    <vehicle id="47" depart="23.35" departSpeed="max">
        <route edges="E01_11 E11_12 E12_13 E13_14"/>
    </vehicle>
    <vehicle id="48" depart="23.84" departSpeed="max">
        <route edges="E43_33 E33_23 E23_24"/>
    </vehicle>
    <vehicle id="49" depart="24.34" departSpeed="max">
        <route edges="E43_33 E33_34"/>
    </vehicle>
    <vehicle id="50" depart="24.84" departSpeed="max">
        <route edges="E01_11 E11_21 E21_31 E31_41"/>
    </vehicle>
    <vehicle id="51" depart="25.33" departSpeed="max">
        <route edges="E34_33 E33_23 E23_24"/>
    </vehicle>
    <vehicle id="52" depart="25.83" departSpeed="max">
        <route edges="E10_11 E11_21 E21_31 E31_30"/>
    </vehicle>
    <vehicle id="53" depart="26.33" departSpeed="max">
        <route edges="E02_12 E12_22 E22_21 E21_20"/>
    </vehicle>
    <vehicle id="54" depart="26.82" departSpeed="max">
        <route edges="E20_21 E21_22 E22_23 E23_33 E33_43"/>
    </vehicle>
    <vehicle id="55" depart="27.32" departSpeed="max">
        <route edges="E42_32 E32_33 E33_23 E23_13 E13_03"/>
    </vehicle>
    <vehicle id="56" depart="27.82" departSpeed="max">
        <route edges="E24_23 E23_22 E22_12 E12_02"/>
    </vehicle>
    <vehicle id="57" depart="28.31" departSpeed="max">
        <route edges="E42_32 E32_33 E33_34"/>
    </vehicle>
    <vehicle id="58" depart="28.81" departSpeed="max">
        <route edges="E10_11 E11_21 E21_31 E31_30"/>
    </vehicle>
    <vehicle id="59" depart="29.31" departSpeed="max">
        <route edges="E30_31 E31_21 E21_11 E11_10"/>
    </vehicle>
    <vehicle id="60" depart="29.80" departSpeed="max">
        <route edges="E41_31 E31_21 E21_22 E22_23 E23_24"/>
    </vehicle>
    <vehicle id="61" depart="30.30" departSpeed="max">
        <route edges="E41_31 E31_21 E21_22 E22_23 E23_24"/>
    </vehicle>
    <vehicle id="62" depart="30.80" departSpeed="max">
        <route edges="E01_11 E11_12 E12_13 E13_03"/>
    </vehicle>
    <vehicle id="63" depart="31.29" departSpeed="max">
        <route edges="E01_11 E11_12 E12_13 E13_23 E23_33 E33_43"/>
    </vehicle>
    <vehicle id="64" depart="31.79" departSpeed="max">
        <route edges="E42_32 E32_31 E31_21 E21_22 E22_32 E32_42"/>
    </vehicle>
    <vehicle id="65" depart="32.29" departSpeed="max">
        <route edges="E10_11 E11_01"/>
    </vehicle>
    <vehicle id="66" depart="32.78" departSpeed="max">
        <route edges="E42_32 E32_33 E33_43"/>
    </vehicle>
    <vehicle id="67" depart="33.28" departSpeed="max">
        <route edges="E02_12 E12_22 E22_21 E21_20"/>
    </vehicle>
    <vehicle id="68" depart="33.78" departSpeed="max">
        <route edges="E01_11 E11_12 E12_22 E22_32 E32_42"/>
    </vehicle>
    <vehicle id="69" depart="34.28" departSpeed="max">
        <route edges="E41_31 E31_21 E21_11 E11_10"/>
    </vehicle>
    <vehicle id="70" depart="34.77" departSpeed="max">
        <route edges="E20_21 E21_22 E22_23 E23_24"/>
    </vehicle>
    <vehicle id="71" depart="35.27" departSpeed="max">
        <route edges="E10_11 E11_12 E12_13 E13_23 E23_33 E33_34"/>
    </vehicle>
    <vehicle id="72" depart="35.77" departSpeed="max">
        <route edges="E20_21 E21_22 E22_12 E12_02"/>
    </vehicle>
    <vehicle id="73" depart="36.26" departSpeed="max">
        <route edges="E24_23 E23_22 E22_21 E21_31 E31_41"/>
    </vehicle>
    <vehicle id="74" depart="36.76" departSpeed="max">
        <route edges="E03_13 E13_23 E23_22 E22_12 E12_13 E13_03"/>
    </vehicle>
    <vehicle id="75" depart="37.26" departSpeed="max">
        <route edges="E43_33 E33_32 E32_31 E31_30"/>
    </vehicle>
    <vehicle id="76" depart="37.75" departSpeed="max">
        <route edges="E20_21 E21_22 E22_23 E23_24"/>
    </vehicle>
    <vehicle id="77" depart="38.25" departSpeed="max">
        <route edges="E02_12 E12_13 E13_23 E23_22 E22_12 E12_02"/>
    </vehicle>
    <vehicle id="78" depart="38.75" departSpeed="max">
        <route edges="E14_13 E13_23 E23_33 E33_32 E32_31 E31_30"/>
    </vehicle>
    <vehicle id="79" depart="39.24" departSpeed="max">
        <route edges="E03_13 E13_12 E12_02"/>
    </vehicle>
    <vehicle id="80" depart="39.74" departSpeed="max">
        <route edges="E01_11 E11_21 E21_31 E31_30"/>
    </vehicle>
    <vehicle id="81" depart="40.24" departSpeed="max">
        <route edges="E03_13 E13_23 E23_33 E33_34"/>
    </vehicle>
    <vehicle id="82" depart="40.73" departSpeed="max">
        <route edges="E42_32 E32_31 E31_21 E21_11 E11_01"/>
    </vehicle>
    <vehicle id="83" depart="41.23" departSpeed="max">
        <route edges="E03_13 E13_23 E23_33 E33_32 E32_31 E31_41"/>
    </vehicle>
    <vehicle id="84" depart="41.73" departSpeed="max">
        <route edges="E03_13 E13_12 E12_11 E11_10"/>
    </vehicle>
    <vehicle id="85" depart="42.22" departSpeed="max">
        <route edges="E43_33 E33_23 E23_24"/>
    </vehicle>
    <vehicle id="86" depart="42.72" departSpeed="max">
        <route edges="E20_21 E21_22 E22_32 E32_42"/>
    </vehicle>
    <vehicle id="87" depart="43.22" departSpeed="max">
        <route edges="E41_31 E31_32 E32_22 E22_12 E12_02"/>
    </vehicle>
    <vehicle id="88" depart="43.71" departSpeed="max">
        <route edges="E02_12 E12_22 E22_21 E21_20"/>
    </vehicle>
    <vehicle id="89" depart="44.21" departSpeed="max">
        <route edges="E20_21 E21_11 E11_12 E12_22 E22_21 E21_20"/>
    </vehicle>
    <vehicle id="90" depart="44.71" departSpeed="max">
        <route edges="E34_33 E33_32 E32_31 E31_41"/>
    </vehicle>
    <vehicle id="91" depart="45.20" departSpeed="max">
        <route edges="E43_33 E33_23 E23_13 E13_12 E12_11 E11_10"/>
    </vehicle>
    <vehicle id="92" depart="45.70" departSpeed="max">
        <route edges="E14_13 E13_23 E23_22 E22_12 E12_13 E13_14"/>
    </vehicle>
    <vehicle id="93" depart="46.20" departSpeed="max">
        <route edges="E42_32 E32_22 E22_12 E12_02"/>
    </vehicle>
    <vehicle id="94" depart="46.69" departSpeed="max">
        <route edges="E03_13 E13_23 E23_22 E22_21 E21_20"/>
    </vehicle>
    <vehicle id="95" depart="47.19" departSpeed="max">
        <route edges="E20_21 E21_22 E22_23 E23_13 E13_03"/>
    </vehicle>
    <vehicle id="96" depart="47.69" departSpeed="max">
        <route edges="E03_13 E13_23 E23_33 E33_43"/>
    </vehicle>
    <vehicle id="97" depart="48.18" departSpeed="max">
        <route edges="E20_21 E21_31 E31_32 E32_33 E33_34"/>
    </vehicle>
    <vehicle id="98" depart="48.68" departSpeed="max">
        <route edges="E24_23 E23_22 E22_21 E21_11 E11_01"/>
    </vehicle>
    <vehicle id="99" depart="49.18" departSpeed="max">
        <route edges="E43_33 E33_34"/>
    </vehicle>
    <vehicle id="100" depart="49.67" departSpeed="max">
        <route edges="E43_33 E33_32 E32_22 E22_23 E23_33 E33_43"/>
    </vehicle>
    <vehicle id="101" depart="50.17" departSpeed="max">
        <route edges="E42_32 E32_22 E22_12 E12_11 E11_10"/>
    </vehicle>
    <vehicle id="102" depart="50.67" departSpeed="max">
        <route edges="E20_21 E21_22 E22_12 E12_02"/>
    </vehicle>
    <vehicle id="103" depart="51.16" departSpeed="max">
        <route edges="E14_13 E13_12 E12_11 E11_01"/>
    </vehicle>
    <vehicle id="104" depart="51.66" departSpeed="max">
        <route edges="E14_13 E13_23 E23_33 E33_43"/>
    </vehicle>
    <vehicle id="105" depart="52.16" departSpeed="max">
        <route edges="E10_11 E11_12 E12_22 E22_32 E32_42"/>
    </vehicle>
    <vehicle id="106" depart="52.65" departSpeed="max">
        <route edges="E20_21 E21_11 E11_12 E12_22 E22_21 E21_20"/>
    </vehicle>
    <vehicle id="107" depart="53.15" departSpeed="max">
        <route edges="E43_33 E33_32 E32_22 E22_23 E23_33 E33_43"/>
    </vehicle>
    <vehicle id="108" depart="53.65" departSpeed="max">
        <route edges="E24_23 E23_22 E22_21 E21_31 E31_41"/>
    </vehicle>
    <vehicle id="109" depart="54.14" departSpeed="max">
        <route edges="E02_12 E12_13 E13_03"/>
    </vehicle>
    <vehicle id="110" depart="54.64" departSpeed="max">
        <route edges="E43_33 E33_23 E23_24"/>
    </vehicle>
    <vehicle id="111" depart="55.14" departSpeed="max">
        <route edges="E24_23 E23_22 E22_21 E21_31 E31_41"/>
    </vehicle>
    <vehicle id="112" depart="55.64" departSpeed="max">
        <route edges="E01_11 E11_21 E21_31 E31_30"/>
    </vehicle>
    <vehicle id="113" depart="56.13" departSpeed="max">
        <route edges="E24_23 E23_33 E33_34"/>
    </vehicle>
    <vehicle id="114" depart="56.63" departSpeed="max">
        <route edges="E02_12 E12_13 E13_23 E23_33 E33_43"/>
    </vehicle>
    <vehicle id="115" depart="57.13" departSpeed="max">
        <route edges="E01_11 E11_12 E12_02"/>
    </vehicle>
    <vehicle id="116" depart="57.62" departSpeed="max">
        <route edges="E30_31 E31_41"/>
    </vehicle>
    <vehicle id="117" depart="58.12" departSpeed="max">
        <route edges="E03_13 E13_12 E12_11 E11_10"/>
    </vehicle>
    <vehicle id="118" depart="58.62" departSpeed="max">
        <route edges="E42_32 E32_22 E22_12 E12_02"/>
    </vehicle>
    <vehicle id="119" depart="59.11" departSpeed="max">
        <route edges="E30_31 E31_21 E21_22 E22_32 E32_31 E31_30"/>
    </vehicle>
    <vehicle id="120" depart="59.61" departSpeed="max">
        <route edges="E20_21 E21_31 E31_30"/>
    </vehicle>
    <vehicle id="121" depart="60.11" departSpeed="max">
        <route edges="E24_23 E23_33 E33_43"/>
    </vehicle>
    <vehicle id="122" depart="60.60" departSpeed="max">
        <route edges="E03_13 E13_23 E23_33 E33_32 E32_31 E31_41"/>
    </vehicle>
    <vehicle id="123" depart="61.10" departSpeed="max">
        <route edges="E03_13 E13_14"/>
    </vehicle>
    <vehicle id="124" depart="61.60" departSpeed="max">
        <route edges="E34_33 E33_23 E23_13 E13_03"/>
    </vehicle>
    <vehicle id="125" depart="62.09" departSpeed="max">
        <route edges="E10_11 E11_12 E12_22 E22_32 E32_42"/>
    </vehicle>
    <vehicle id="126" depart="62.59" departSpeed="max">
        <route edges="E01_11 E11_21 E21_20"/>
    </vehicle>
    <vehicle id="127" depart="63.09" departSpeed="max">
        <route edges="E43_33 E33_32 E32_22 E22_23 E23_33 E33_43"/>
    </vehicle>
    <vehicle id="128" depart="63.58" departSpeed="max">
        <route edges="E01_11 E11_12 E12_02"/>
    </vehicle>
    <vehicle id="129" depart="64.08" departSpeed="max">
        <route edges="E10_11 E11_12 E12_13 E13_23 E23_33 E33_43"/>
    </vehicle>
    <vehicle id="130" depart="64.58" departSpeed="max">
        <route edges="E42_32 E32_33 E33_34"/>
    </vehicle>
    <vehicle id="131" depart="65.07" departSpeed="max">
        <route edges="E14_13 E13_12 E12_11 E11_10"/>
    </vehicle>
    <vehicle id="132" depart="65.57" departSpeed="max">
        <route edges="E42_32 E32_31 E31_41"/>
    </vehicle>
    <vehicle id="133" depart="66.07" departSpeed="max">
        <route edges="E30_31 E31_32 E32_33 E33_43"/>
    </vehicle>
    <vehicle id="134" depart="66.56" departSpeed="max">
        <route edges="E30_31 E31_21 E21_11 E11_01"/>
    </vehicle>
    <vehicle id="135" depart="67.06" departSpeed="max">
        <route edges="E41_31 E31_21 E21_11 E11_12 E12_13 E13_03"/>
    </vehicle>
    <vehicle id="136" depart="67.56" departSpeed="max">
        <route edges="E30_31 E31_32 E32_33 E33_43"/>
    </vehicle>
    <vehicle id="137" depart="68.05" departSpeed="max">
        <route edges="E02_12 E12_11 E11_10"/>
    </vehicle>
    <vehicle id="138" depart="68.55" departSpeed="max">
        <route edges="E02_12 E12_22 E22_23 E23_24"/>
    </vehicle>
    <vehicle id="139" depart="69.05" departSpeed="max">
        <route edges="E10_11 E11_21 E21_31 E31_30"/>
    </vehicle>
    <vehicle id="140" depart="69.54" departSpeed="max">
        <route edges="E34_33 E33_32 E32_22 E22_12 E12_02"/>
    </vehicle>
    <vehicle id="141" depart="70.04" departSpeed="max">
        <route edges="E30_31 E31_32 E32_33 E33_23 E23_13 E13_03"/>
    </vehicle>
    <vehicle id="142" depart="70.54" departSpeed="max">
        <route edges="E20_21 E21_31 E31_32 E32_33 E33_34"/>
    </vehicle>
    <vehicle id="143" depart="71.03" departSpeed="max">
        <route edges="E42_32 E32_22 E22_12 E12_11 E11_10"/>
    </vehicle>
    <vehicle id="144" depart="71.53" departSpeed="max">
        <route edges="E20_21 E21_22 E22_23 E23_13 E13_03"/>
    </vehicle>
    <vehicle id="145" depart="72.03" departSpeed="max">
        <route edges="E01_11 E11_12 E12_22 E22_32 E32_42"/>
    </vehicle>
    <vehicle id="146" depart="72.52" departSpeed="max">
        <route edges="E30_31 E31_32 E32_33 E33_23 E23_13 E13_03"/>
    </vehicle>
    <vehicle id="147" depart="73.02" departSpeed="max">
        <route edges="E34_33 E33_23 E23_24"/>
    </vehicle>
    <vehicle id="148" depart="73.52" departSpeed="max">
        <route edges="E20_21 E21_11 E11_01"/>
    </vehicle>
    <vehicle id="149" depart="74.01" departSpeed="max">
        <route edges="E01_11 E11_21 E21_31 E31_32 E32_33 E33_34"/>
    </vehicle>
    <vehicle id="150" depart="74.51" departSpeed="max">
        <route edges="E42_32 E32_22 E22_23 E23_24"/>
    </vehicle>
    <vehicle id="151" depart="75.01" departSpeed="max">
        <route edges="E42_32 E32_22 E22_23 E23_24"/>
    </vehicle>
    <vehicle id="152" depart="75.50" departSpeed="max">
        <route edges="E02_12 E12_11 E11_10"/>
    </vehicle>
    <vehicle id="153" depart="76.00" departSpeed="max">
        <route edges="E10_11 E11_12 E12_13 E13_23 E23_33 E33_34"/>
    </vehicle>
    <vehicle id="154" depart="76.50" departSpeed="max">
        <route edges="E41_31 E31_32 E32_33 E33_34"/>
    </vehicle>
    <vehicle id="155" depart="76.99" departSpeed="max">
        <route edges="E42_32 E32_22 E22_12 E12_02"/>
    </vehicle>
    <vehicle id="156" depart="77.49" departSpeed="max">
        <route edges="E03_13 E13_12 E12_11 E11_10"/>
    </vehicle>
    <vehicle id="157" depart="77.99" departSpeed="max">
        <route edges="E41_31 E31_32 E32_33 E33_34"/>
    </vehicle>
    <vehicle id="158" depart="78.49" departSpeed="max">
        <route edges="E14_13 E13_23 E23_33 E33_32 E32_31 E31_30"/>
    </vehicle>
    <vehicle id="159" depart="78.98" departSpeed="max">
        <route edges="E02_12 E12_13 E13_23 E23_33 E33_43"/>
    </vehicle>
    <vehicle id="160" depart="79.48" departSpeed="max">
        <route edges="E42_32 E32_33 E33_43"/>
    </vehicle>
    <vehicle id="161" depart="79.98" departSpeed="max">
        <route edges="E41_31 E31_32 E32_33 E33_34"/>
    </vehicle>
    <vehicle id="162" depart="80.47" departSpeed="max">
        <route edges="E01_11 E11_21 E21_31 E31_41"/>
    </vehicle>
    <vehicle id="163" depart="80.97" departSpeed="max">
        <route edges="E10_11 E11_12 E12_13 E13_23 E23_33 E33_43"/>
    </vehicle>
    <vehicle id="164" depart="81.47" departSpeed="max">
        <route edges="E41_31 E31_32 E32_33 E33_34"/>
    </vehicle>
    <vehicle id="165" depart="81.96" departSpeed="max">
        <route edges="E41_31 E31_21 E21_11 E11_12 E12_13 E13_03"/>
    </vehicle>
    <vehicle id="166" depart="82.46" departSpeed="max">
        <route edges="E41_31 E31_21 E21_11 E11_10"/>
    </vehicle>
    <vehicle id="167" depart="82.96" departSpeed="max">
        <route edges="E42_32 E32_33 E33_34"/>
    </vehicle>
    <vehicle id="168" depart="83.45" departSpeed="max">
        <route edges="E03_13 E13_12 E12_22 E22_32 E32_42"/>
    </vehicle>
    <vehicle id="169" depart="83.95" departSpeed="max">
        <route edges="E20_21 E21_22 E22_23 E23_13 E13_03"/>
    </vehicle>
    <vehicle id="170" depart="84.45" departSpeed="max">
        <route edges="E41_31 E31_32 E32_22 E22_12 E12_02"/>
    </vehicle>
    <vehicle id="171" depart="84.94" departSpeed="max">
        <route edges="E01_11 E11_12 E12_02"/>
    </vehicle>
    <vehicle id="172" depart="85.44" departSpeed="max">
        <route edges="E10_11 E11_12 E12_13 E13_23 E23_33 E33_34"/>
    </vehicle>
    <vehicle id="173" depart="85.94" departSpeed="max">
        <route edges="E43_33 E33_23 E23_13 E13_03"/>
    </vehicle>
    <vehicle id="174" depart="86.43" departSpeed="max">
        <route edges="E30_31 E31_21 E21_11 E11_12 E12_13 E13_14"/>
    </vehicle>
    <vehicle id="175" depart="86.93" departSpeed="max">
        <route edges="E43_33 E33_23 E23_24"/>
    </vehicle>
    <vehicle id="176" depart="87.43" departSpeed="max">
        <route edges="E43_33 E33_23 E23_13 E13_12 E12_11 E11_10"/>
    </vehicle>
    <vehicle id="177" depart="87.92" departSpeed="max">
        <route edges="E43_33 E33_32 E32_22 E22_12 E12_02"/>
    </vehicle>
    <vehicle id="178" depart="88.42" departSpeed="max">
        <route edges="E43_33 E33_23 E23_13 E13_03"/>
    </vehicle>
    <vehicle id="179" depart="88.92" departSpeed="max">
        <route edges="E02_12 E12_22 E22_21 E21_20"/>
    </vehicle>
    <vehicle id="180" depart="89.41" departSpeed="max">
        <route edges="E34_33 E33_23 E23_13 E13_03"/>
    </vehicle>
    <vehicle id="181" depart="89.91" departSpeed="max">
        <route edges="E30_31 E31_21 E21_22 E22_23 E23_24"/>
    </vehicle>
    <vehicle id="182" depart="90.41" departSpeed="max">
        <route edges="E14_13 E13_23 E23_24"/>
    </vehicle>
    <vehicle id="183" depart="90.90" departSpeed="max">
        <route edges="E10_11 E11_21 E21_31 E31_41"/>
    </vehicle>
    <vehicle id="184" depart="91.40" departSpeed="max">
        <route edges="E01_11 E11_12 E12_13 E13_23 E23_33 E33_43"/>
    </vehicle>
    <vehicle id="185" depart="91.90" departSpeed="max">
        <route edges="E24_23 E23_22 E22_21 E21_31 E31_41"/>
    </vehicle>
    <vehicle id="186" depart="92.39" departSpeed="max">
        <route edges="E34_33 E33_32 E32_31 E31_41"/>
    </vehicle>
    <vehicle id="187" depart="92.89" departSpeed="max">
        <route edges="E14_13 E13_12 E12_11 E11_01"/>
    </vehicle>
    <vehicle id="188" depart="93.39" departSpeed="max">
        <route edges="E30_31 E31_32 E32_33 E33_23 E23_13 E13_03"/>
    </vehicle>
    <vehicle id="189" depart="93.88" departSpeed="max">
        <route edges="E10_11 E11_12 E12_13 E13_23 E23_33 E33_34"/>
    </vehicle>
    <vehicle id="190" depart="94.38" departSpeed="max">
        <route edges="E34_33 E33_23 E23_13 E13_03"/>
    </vehicle>
    <vehicle id="191" depart="94.88" departSpeed="max">
        <route edges="E10_11 E11_12 E12_13 E13_14"/>
    </vehicle>
    <vehicle id="192" depart="95.37" departSpeed="max">
        <route edges="E14_13 E13_03"/>
    </vehicle>
    <vehicle id="193" depart="95.87" departSpeed="max">
        <route edges="E02_12 E12_22 E22_21 E21_20"/>
    </vehicle>
    <vehicle id="194" depart="96.37" departSpeed="max">
        <route edges="E43_33 E33_32 E32_31 E31_41"/>
    </vehicle>
    <vehicle id="195" depart="96.86" departSpeed="max">
        <route edges="E42_32 E32_31 E31_30"/>
    </vehicle>
    <vehicle id="196" depart="97.36" departSpeed="max">
        <route edges="E10_11 E11_21 E21_22 E22_23 E23_24"/>
    </vehicle>
    <vehicle id="197" depart="97.86" departSpeed="max">
        <route edges="E01_11 E11_12 E12_13 E13_03"/>
    </vehicle>
    <vehicle id="198" depart="98.35" departSpeed="max">
        <route edges="E20_21 E21_22 E22_23 E23_24"/>
    </vehicle>
    <vehicle id="199" depart="98.85" departSpeed="max">
        <route edges="E30_31 E31_21 E21_20"/>
    </vehicle>
    <vehicle id="200" depart="99.35" departSpeed="max">
        <route edges="E20_21 E21_22 E22_12 E12_02"/>
    </vehicle>
    <vehicle id="201" depart="99.85" departSpeed="max">
        <route edges="E20_21 E21_31 E31_32 E32_33 E33_34"/>
    </vehicle>
    <vehicle id="202" depart="100.34" departSpeed="max">
        <route edges="E41_31 E31_32 E32_22 E22_12 E12_02"/>
    </vehicle>
    <vehicle id="203" depart="100.84" departSpeed="max">
        <route edges="E02_12 E12_22 E22_23 E23_24"/>
    </vehicle>
    <vehicle id="204" depart="101.34" departSpeed="max">
        <route edges="E30_31 E31_21 E21_11 E11_12 E12_13 E13_14"/>
    </vehicle>
    <vehicle id="205" depart="101.83" departSpeed="max">
        <route edges="E41_31 E31_32 E32_42"/>
    </vehicle>
    <vehicle id="206" depart="102.33" departSpeed="max">
        <route edges="E34_33 E33_32 E32_22 E22_12 E12_02"/>
    </vehicle>
    <vehicle id="207" depart="102.83" departSpeed="max">
        <route edges="E03_13 E13_12 E12_11 E11_01"/>
    </vehicle>
    <vehicle id="208" depart="103.32" departSpeed="max">
        <route edges="E03_13 E13_23 E23_22 E22_21 E21_20"/>
    </vehicle>
    <vehicle id="209" depart="103.82" departSpeed="max">
        <route edges="E42_32 E32_31 E31_21 E21_11 E11_01"/>
    </vehicle>
    <vehicle id="210" depart="104.32" departSpeed="max">
        <route edges="E14_13 E13_23 E23_33 E33_32 E32_31 E31_30"/>
    </vehicle>
    <vehicle id="211" depart="104.81" departSpeed="max">
        <route edges="E03_13 E13_23 E23_33 E33_32 E32_31 E31_41"/>
    </vehicle>
    <vehicle id="212" depart="105.31" departSpeed="max">
        <route edges="E20_21 E21_22 E22_12 E12_02"/>
    </vehicle>
    <vehicle id="213" depart="105.81" departSpeed="max">
        <route edges="E30_31 E31_21 E21_11 E11_01"/>
    </vehicle>
    <vehicle id="214" depart="106.30" departSpeed="max">
        <route edges="E41_31 E31_32 E32_42"/>
    </vehicle>
    <vehicle id="215" depart="106.80" departSpeed="max">
        <route edges="E02_12 E12_22 E22_21 E21_20"/>
    </vehicle>
    <vehicle id="216" depart="107.30" departSpeed="max">
        <route edges="E03_13 E13_23 E23_33 E33_43"/>
    </vehicle>
    <vehicle id="217" depart="107.79" departSpeed="max">
        <route edges="E24_23 E23_22 E22_21 E21_11 E11_01"/>
    </vehicle>
    <vehicle id="218" depart="108.29" departSpeed="max">
        <route edges="E03_13 E13_23 E23_33 E33_34"/>
    </vehicle>
    <vehicle id="219" depart="108.79" departSpeed="max">
        <route edges="E20_21 E21_22 E22_32 E32_42"/>
    </vehicle>
    <vehicle id="220" depart="109.28" departSpeed="max">
        <route edges="E34_33 E33_43"/>
    </vehicle>
    <vehicle id="221" depart="109.78" departSpeed="max">
        <route edges="E30_31 E31_32 E32_33 E33_43"/>
    </vehicle>
    <vehicle id="222" depart="110.28" departSpeed="max">
        <route edges="E42_32 E32_31 E31_30"/>
    </vehicle>
    <vehicle id="223" depart="110.77" departSpeed="max">
        <route edges="E34_33 E33_23 E23_24"/>
    </vehicle>
    <vehicle id="224" depart="111.27" departSpeed="max">
        <route edges="E41_31 E31_21 E21_22 E22_23 E23_24"/>
    </vehicle>
    <vehicle id="225" depart="111.77" departSpeed="max">
        <route edges="E42_32 E32_31 E31_41"/>
    </vehicle>
    <vehicle id="226" depart="112.26" departSpeed="max">
        <route edges="E20_21 E21_22 E22_23 E23_13 E13_03"/>
    </vehicle>
    <vehicle id="227" depart="112.76" departSpeed="max">
        <route edges="E03_13 E13_23 E23_33 E33_32 E32_31 E31_30"/>
    </vehicle>
    <vehicle id="228" depart="113.26" departSpeed="max">