<?xml version="1.0" encoding="UTF-8"?>

<!-- generated on 2025-01-31 03:35:03.229945 by randomTrips.py v1_20_0+0002-343658e7c64
<configuration>
    <net-file value="3x3.net.xml"/>
    <output-trip-file value="trips.trips.xml"/>
    <route-file value="3x3_train.rou.xml"/>
    <trip-attributes value="departSpeed='max'"/>
    <random-factor value="1.5"/>
    <fringe-factor value="max"/>
    <end value="5400.0"/>
    <insertion-density value="80.0 120.0 180.0 120.0 80.0 120.0 180.0 120.0 50.0"/>
    <random-depart value="True"/>
</configuration>
-->

<!-- generated on 2025-01-31 03:35:03 by Eclipse SUMO duarouter Version 1.20.0
<configuration xmlns:xsi="http://www.w3.org/2001/XMLSchema-instance" xsi:noNamespaceSchemaLocation="http://sumo.dlr.de/xsd/duarouterConfiguration.xsd">

    <input>
        <net-file value="3x3.net.xml"/>
        <route-files value="trips.trips.xml"/>
    </input>

    <output>
        <output-file value="3x3_train.rou.xml"/>
        <alternatives-output value="NUL"/>
    </output>

    <time>
        <begin value="0"/>
        <end value="5400.0"/>
    </time>

    <report>
        <no-warnings value="true"/>
        <ignore-errors value="true"/>
        <no-step-log value="true"/>
    </report>

</configuration>
-->

<routes xmlns:xsi="http://www.w3.org/2001/XMLSchema-instance" xsi:noNamespaceSchemaLocation="http://sumo.dlr.de/xsd/routes_file.xsd">
    <vehicle id="0" depart="1.31" departSpeed="max">
        <route edges="E30_31 E31_21 E21_11 E11_10"/>
    </vehicle>
    <vehicle id="1" depart="1.60" departSpeed="max">
        <route edges="E34_33 E33_32 E32_22 E22_23 E23_33 E33_34"/>
    </vehicle>
    <vehicle id="2" depart="2.01" departSpeed="max">
        <route edges="E30_31 E31_32 E32_42"/>
    </vehicle>
    <vehicle id="3" depart="2.19" departSpeed="max">
        <route edges="E34_33 E33_23 E23_22 E22_12 E12_02"/>
    </vehicle>
    <vehicle id="4" depart="2.30" departSpeed="max">
        <route edges="E20_21 E21_11 E11_12 E12_02"/>
    </vehicle>
    <vehicle id="5" depart="6.36" departSpeed="max">
        <route edges="E14_13 E13_12 E12_22 E22_21 E21_20"/>
    </vehicle>
    <vehicle id="6" depart="8.13" departSpeed="max">
        <route edges="E20_21 E21_11 E11_10"/>
    </vehicle>
    <vehicle id="7" depart="9.41" departSpeed="max">
        <route edges="E20_21 E21_31 E31_41"/>
    </vehicle>
    <vehicle id="8" depart="10.25" departSpeed="max">
        <route edges="E14_13 E13_12 E12_11 E11_10"/>
    </vehicle>
    <vehicle id="9" depart="12.07" departSpeed="max">
        <route edges="E43_33 E33_23 E23_22 E22_12 E12_11 E11_01"/>
    </vehicle>
    <vehicle id="10" depart="14.48" departSpeed="max">
        <route edges="E41_31 E31_21 E21_11 E11_10"/>
    </vehicle>
    <vehicle id="11" depart="14.77" departSpeed="max">
        <route edges="E02_12 E12_11 E11_21 E21_31 E31_41"/>
    </vehicle>
    <vehicle id="12" depart="15.07" departSpeed="max">
        <route edges="E41_31 E31_32 E32_22 E22_23 E23_24"/>
    </vehicle>
    <vehicle id="13" depart="15.30" departSpeed="max">
        <route edges="E24_23 E23_22 E22_12 E12_13 E13_23 E23_24"/>
    </vehicle>
    <vehicle id="14" depart="16.94" departSpeed="max">
        <route edges="E14_13 E13_12 E12_11 E11_10"/>
    </vehicle>
    <vehicle id="15" depart="17.18" departSpeed="max">
        <route edges="E14_13 E13_23 E23_22 E22_32 E32_31 E31_41"/>
    </vehicle>
    <vehicle id="16" depart="19.95" departSpeed="max">
        <route edges="E34_33 E33_32 E32_22 E22_23 E23_33 E33_34"/>
    </vehicle>
    <vehicle id="17" depart="20.31" departSpeed="max">
        <route edges="E34_33 E33_43"/>
    </vehicle>
    <vehicle id="18" depart="20.36" departSpeed="max">
        <route edges="E30_31 E31_32 E32_22 E22_23 E23_13 E13_14"/>
    </vehicle>
    <vehicle id="19" depart="21.00" departSpeed="max">
        <route edges="E24_23 E23_13 E13_12 E12_02"/>
    </vehicle>
    <vehicle id="20" depart="21.36" departSpeed="max">
        <route edges="E30_31 E31_21 E21_11 E11_12 E12_02"/>
    </vehicle>
    <vehicle id="21" depart="24.18" departSpeed="max">
        <route edges="E02_12 E12_22 E22_23 E23_33 E33_34"/>
    </vehicle>
    <vehicle id="22" depart="25.53" departSpeed="max">
        <route edges="E14_13 E13_23 E23_33 E33_32 E32_42"/>
    </vehicle>
    <vehicle id="23" depart="26.77" departSpeed="max">
        <route edges="E24_23 E23_33 E33_32 E32_42"/>
    </vehicle>
    <vehicle id="24" depart="26.94" departSpeed="max">
        <route edges="E42_32 E32_33 E33_43"/>
    </vehicle>
    <vehicle id="25" depart="27.00" departSpeed="max">
        <route edges="E41_31 E31_30"/>
    </vehicle>
    <vehicle id="26" depart="28.88" departSpeed="max">
        <route edges="E30_31 E31_21 E21_11 E11_01"/>
    </vehicle>
    <vehicle id="27" depart="29.53" departSpeed="max">
        <route edges="E43_33 E33_32 E32_42"/>
    </vehicle>
    <vehicle id="28" depart="29.54" departSpeed="max">
        <route edges="E10_11 E11_12 E12_02"/>
    </vehicle>
    <vehicle id="29" depart="32.77" departSpeed="max">
        <route edges="E34_33 E33_23 E23_13 E13_03"/>
    </vehicle>
    <vehicle id="30" depart="36.24" departSpeed="max">
        <route edges="E14_13 E13_12 E12_11 E11_01"/>
    </vehicle>
    <vehicle id="31" depart="38.59" departSpeed="max">
        <route edges="E42_32 E32_33 E33_23 E23_24"/>
    </vehicle>
    <vehicle id="32" depart="39.06" departSpeed="max">
        <route edges="E14_13 E13_12 E12_11 E11_10"/>
    </vehicle>
    <vehicle id="33" depart="40.01" departSpeed="max">
        <route edges="E30_31 E31_21 E21_11 E11_01"/>
    </vehicle>
    <vehicle id="34" depart="40.18" departSpeed="max">
        <route edges="E34_33 E33_23 E23_22 E22_12 E12_02"/>
    </vehicle>
    <vehicle id="35" depart="41.65" departSpeed="max">
        <route edges="E20_21 E21_22 E22_12 E12_13 E13_03"/>
    </vehicle>
    <vehicle id="36" depart="42.07" departSpeed="max">
        <route edges="E14_13 E13_23 E23_22 E22_32 E32_31 E31_41"/>
    </vehicle>
    <vehicle id="37" depart="44.24" departSpeed="max">
        <route edges="E41_31 E31_32 E32_22 E22_23 E23_24"/>
    </vehicle>
    <vehicle id="38" depart="45.35" departSpeed="max">
        <route edges="E01_11 E11_12 E12_22 E22_21 E21_11 E11_01"/>
    </vehicle>
    <vehicle id="39" depart="45.48" departSpeed="max">
        <route edges="E02_12 E12_11 E11_21 E21_31 E31_30"/>
    </vehicle>
    <vehicle id="40" depart="47.42" departSpeed="max">
        <route edges="E30_31 E31_21 E21_22 E22_12 E12_13 E13_03"/>
    </vehicle>
    <vehicle id="41" depart="50.78" departSpeed="max">
        <route edges="E30_31 E31_21 E21_20"/>
    </vehicle>
    <vehicle id="42" depart="51.07" departSpeed="max">
        <route edges="E20_21 E21_22 E22_12 E12_13 E13_03"/>
    </vehicle>
    <vehicle id="43" depart="51.30" departSpeed="max">
        <route edges="E34_33 E33_23 E23_22 E22_21 E21_11 E11_10"/>
    </vehicle>
    <vehicle id="44" depart="52.06" departSpeed="max">
        <route edges="E20_21 E21_22 E22_12 E12_13 E13_03"/>
    </vehicle>
    <vehicle id="45" depart="52.36" departSpeed="max">
        <route edges="E30_31 E31_21 E21_20"/>
    </vehicle>
    <vehicle id="46" depart="52.47" departSpeed="max">
        <route edges="E30_31 E31_21 E21_11 E11_01"/>
    </vehicle>
    <vehicle id="47" depart="53.13" departSpeed="max">
        <route edges="E14_13 E13_12 E12_22 E22_21 E21_31 E31_30"/>
    </vehicle>
    <vehicle id="48" depart="55.59" departSpeed="max">
        <route edges="E01_11 E11_12 E12_13 E13_03"/>
    </vehicle>
    <vehicle id="49" depart="55.60" departSpeed="max">
        <route edges="E03_13 E13_12 E12_11 E11_10"/>
    </vehicle>
    <vehicle id="50" depart="55.77" departSpeed="max">
        <route edges="E10_11 E11_12 E12_13 E13_03"/>
    </vehicle>
    <vehicle id="51" depart="58.00" departSpeed="max">
        <route edges="E01_11 E11_21 E21_31 E31_41"/>
    </vehicle>
    <vehicle id="52" depart="60.77" departSpeed="max">
        <route edges="E03_13 E13_14"/>
    </vehicle>
    <vehicle id="53" depart="61.88" departSpeed="max">
        <route edges="E34_33 E33_23 E23_24"/>
    </vehicle>
    <vehicle id="54" depart="61.89" departSpeed="max">
        <route edges="E41_31 E31_32 E32_42"/>
    </vehicle>
    <vehicle id="55" depart="62.48" departSpeed="max">
        <route edges="E01_11 E11_12 E12_22 E22_23 E23_33 E33_34"/>
    </vehicle>
    <vehicle id="56" depart="62.66" departSpeed="max">
        <route edges="E01_11 E11_12 E12_22 E22_21 E21_11 E11_01"/>
    </vehicle>
    <vehicle id="57" depart="62.77" departSpeed="max">
        <route edges="E43_33 E33_34"/>
    </vehicle>
    <vehicle id="58" depart="62.89" departSpeed="max">
        <route edges="E24_23 E23_22 E22_12 E12_13 E13_23 E23_24"/>
    </vehicle>
    <vehicle id="59" depart="65.30" departSpeed="max">
        <route edges="E34_33 E33_23 E23_13 E13_14"/>
    </vehicle>
    <vehicle id="60" depart="65.89" departSpeed="max">
        <route edges="E02_12 E12_11 E11_01"/>
    </vehicle>
    <vehicle id="61" depart="66.24" departSpeed="max">
        <route edges="E10_11 E11_21 E21_22 E22_32 E32_42"/>
    </vehicle>
    <vehicle id="62" depart="69.24" departSpeed="max">
        <route edges="E30_31 E31_32 E32_42"/>
    </vehicle>
    <vehicle id="63" depart="70.42" departSpeed="max">
        <route edges="E43_33 E33_32 E32_22 E22_21 E21_11 E11_10"/>
    </vehicle>
    <vehicle id="64" depart="70.95" departSpeed="max">
        <route edges="E41_31 E31_32 E32_22 E22_12 E12_02"/>
    </vehicle>
    <vehicle id="65" depart="71.18" departSpeed="max">
        <route edges="E24_23 E23_22 E22_12 E12_13 E13_23 E23_24"/>
    </vehicle>
    <vehicle id="66" depart="71.77" departSpeed="max">
        <route edges="E14_13 E13_03"/>
    </vehicle>
    <vehicle id="67" depart="72.06" departSpeed="max">
        <route edges="E14_13 E13_03"/>
    </vehicle>
    <vehicle id="68" depart="72.12" departSpeed="max">
        <route edges="E03_13 E13_23 E23_24"/>
    </vehicle>
    <vehicle id="69" depart="72.89" departSpeed="max">
        <route edges="E02_12 E12_13 E13_23 E23_24"/>
    </vehicle>
    <vehicle id="70" depart="74.06" departSpeed="max">
        <route edges="E42_32 E32_33 E33_23 E23_13 E13_14"/>
    </vehicle>
    <vehicle id="71" depart="75.19" departSpeed="max">
        <route edges="E34_33 E33_32 E32_42"/>
    </vehicle>
    <vehicle id="72" depart="76.48" departSpeed="max">
        <route edges="E41_31 E31_32 E32_22 E22_12 E12_02"/>
    </vehicle>
    <vehicle id="73" depart="76.83" departSpeed="max">
        <route edges="E02_12 E12_22 E22_21 E21_11 E11_12 E12_02"/>
    </vehicle>
    <vehicle id="74" depart="77.89" departSpeed="max">
        <route edges="E30_31 E31_41"/>
    </vehicle>
    <vehicle id="75" depart="77.94" departSpeed="max">
        <route edges="E30_31 E31_21 E21_11 E11_12 E12_02"/>
    </vehicle>
    <vehicle id="76" depart="79.36" departSpeed="max">
        <route edges="E41_31 E31_32 E32_22 E22_23 E23_24"/>
    </vehicle>
    <vehicle id="77" depart="80.01" departSpeed="max">
        <route edges="E34_33 E33_32 E32_31 E31_41"/>
    </vehicle>
    <vehicle id="78" depart="82.71" departSpeed="max">
        <route edges="E20_21 E21_31 E31_32 E32_33 E33_43"/>
    </vehicle>
    <vehicle id="79" depart="83.48" departSpeed="max">
        <route edges="E24_23 E23_22 E22_32 E32_31 E31_30"/>
    </vehicle>
    <vehicle id="80" depart="83.60" departSpeed="max">
        <route edges="E30_31 E31_32 E32_33 E33_34"/>
    </vehicle>
    <vehicle id="81" depart="87.89" departSpeed="max">
        <route edges="E30_31 E31_21 E21_11 E11_10"/>
    </vehicle>
    <vehicle id="82" depart="88.54" departSpeed="max">
        <route edges="E01_11 E11_21 E21_20"/>
    </vehicle>
    <vehicle id="83" depart="92.54" departSpeed="max">
        <route edges="E10_11 E11_12 E12_13 E13_03"/>
    </vehicle>
    <vehicle id="84" depart="93.53" departSpeed="max">
        <route edges="E01_11 E11_12 E12_13 E13_23 E23_24"/>
    </vehicle>
    <vehicle id="85" depart="95.48" departSpeed="max">
        <route edges="E10_11 E11_21 E21_20"/>
    </vehicle>
    <vehicle id="86" depart="99.24" departSpeed="max">
        <route edges="E01_11 E11_21 E21_22 E22_32 E32_42"/>
    </vehicle>
    <vehicle id="87" depart="99.89" departSpeed="max">
        <route edges="E01_11 E11_12 E12_22 E22_23 E23_33 E33_34"/>
    </vehicle>
    <vehicle id="88" depart="100.00" departSpeed="max">
        <route edges="E42_32 E32_31 E31_30"/>
    </vehicle>
    <vehicle id="89" depart="101.24" departSpeed="max">
        <route edges="E24_23 E23_22 E22_21 E21_20"/>
    </vehicle>
    <vehicle id="90" depart="102.30" departSpeed="max">
        <route edges="E24_23 E23_33 E33_32 E32_42"/>
    </vehicle>
    <vehicle id="91" depart="102.42" departSpeed="max">
        <route edges="E42_32 E32_31 E31_21 E21_20"/>
    </vehicle>
    <vehicle id="92" depart="102.83" departSpeed="max">
        <route edges="E41_31 E31_30"/>
    </vehicle>
    <vehicle id="93" depart="106.12" departSpeed="max">
        <route edges="E10_11 E11_21 E21_20"/>
    </vehicle>
    <vehicle id="94" depart="108.13" departSpeed="max">
        <route edges="E02_12 E12_11 E11_01"/>
    </vehicle>
    <vehicle id="95" depart="109.19" departSpeed="max">
        <route edges="E02_12 E12_22 E22_23 E23_33 E33_34"/>
    </vehicle>
    <vehicle id="96" depart="109.60" departSpeed="max">
        <route edges="E14_13 E13_23 E23_22 E22_32 E32_31 E31_41"/>
    </vehicle>
    <vehicle id="97" depart="110.07" departSpeed="max">
        <route edges="E24_23 E23_13 E13_12 E12_02"/>
    </vehicle>
    <vehicle id="98" depart="110.12" departSpeed="max">
        <route edges="E10_11 E11_21 E21_20"/>
    </vehicle>
    <vehicle id="99" depart="117.36" departSpeed="max">
        <route edges="E20_21 E21_22 E22_23 E23_24"/>
    </vehicle>
    <vehicle id="100" depart="117.65" departSpeed="max">
        <route edges="E02_12 E12_13 E13_14"/>
    </vehicle>
    <vehicle id="101" depart="121.19" departSpeed="max">
        <route edges="E10_11 E11_12 E12_13 E13_14"/>
    </vehicle>
    <vehicle id="102" depart="123.18" departSpeed="max">
        <route edges="E14_13 E13_12 E12_22 E22_21 E21_31 E31_30"/>
    </vehicle>
    <vehicle id="103" depart="123.77" departSpeed="max">
        <route edges="E41_31 E31_30"/>
    </vehicle>
    <vehicle id="104" depart="124.41" departSpeed="max">
        <route edges="E01_11 E11_10"/>
    </vehicle>
    <vehicle id="105" depart="125.72" departSpeed="max">
        <route edges="E30_31 E31_21 E21_22 E22_12 E12_13 E13_03"/>
    </vehicle>
    <vehicle id="106" depart="127.36" departSpeed="max">
        <route edges="E34_33 E33_32 E32_31 E31_30"/>
    </vehicle>
    <vehicle id="107" depart="128.01" departSpeed="max">
        <route edges="E42_32 E32_33 E33_34"/>
    </vehicle>
    <vehicle id="108" depart="129.06" departSpeed="max">
        <route edges="E14_13 E13_23 E23_24"/>
    </vehicle>
    <vehicle id="109" depart="129.48" departSpeed="max">
        <route edges="E02_12 E12_13 E13_14"/>
    </vehicle>
    <vehicle id="110" depart="129.71" departSpeed="max">
        <route edges="E43_33 E33_32 E32_31 E31_41"/>
    </vehicle>
    <vehicle id="111" depart="130.06" departSpeed="max">
        <route edges="E14_13 E13_12 E12_22 E22_21 E21_31 E31_30"/>
    </vehicle>
    <vehicle id="112" depart="134.12" departSpeed="max">
        <route edges="E43_33 E33_23 E23_13 E13_03"/>
    </vehicle>
    <vehicle id="113" depart="134.59" departSpeed="max">
        <route edges="E14_13 E13_23 E23_33 E33_32 E32_42"/>
    </vehicle>
    <vehicle id="114" depart="134.83" departSpeed="max">
        <route edges="E41_31 E31_21 E21_22 E22_32 E32_31 E31_41"/>
    </vehicle>
    <vehicle id="115" depart="135.01" departSpeed="max">
        <route edges="E41_31 E31_21 E21_22 E22_32 E32_31 E31_41"/>
    </vehicle>
    <vehicle id="116" depart="140.65" departSpeed="max">
        <route edges="E30_31 E31_32 E32_22 E22_23 E23_24"/>
    </vehicle>
    <vehicle id="117" depart="141.12" departSpeed="max">
        <route edges="E30_31 E31_32 E32_22 E22_23 E23_13 E13_14"/>
    </vehicle>
    <vehicle id="118" depart="143.41" departSpeed="max">
        <route edges="E14_13 E13_23 E23_22 E22_12 E12_13 E13_14"/>
    </vehicle>
    <vehicle id="119" depart="145.59" departSpeed="max">
        <route edges="E03_13 E13_12 E12_02"/>
    </vehicle>
    <vehicle id="120" depart="148.65" departSpeed="max">
        <route edges="E43_33 E33_32 E32_31 E31_21 E21_20"/>
    </vehicle>
    <vehicle id="121" depart="149.42" departSpeed="max">
        <route edges="E03_13 E13_12 E12_11 E11_10"/>
    </vehicle>
    <vehicle id="122" depart="150.94" departSpeed="max">
        <route edges="E01_11 E11_12 E12_22 E22_23 E23_33 E33_34"/>
    </vehicle>
    <vehicle id="123" depart="151.59" departSpeed="max">
        <route edges="E02_12 E12_22 E22_32 E32_42"/>
    </vehicle>
    <vehicle id="124" depart="151.88" departSpeed="max">
        <route edges="E41_31 E31_32 E32_33 E33_34"/>
    </vehicle>
    <vehicle id="125" depart="152.01" departSpeed="max">
        <route edges="E01_11 E11_12 E12_13 E13_03"/>
    </vehicle>
    <vehicle id="126" depart="155.89" departSpeed="max">
        <route edges="E41_31 E31_21 E21_11 E11_10"/>
    </vehicle>
    <vehicle id="127" depart="156.36" departSpeed="max">
        <route edges="E14_13 E13_12 E12_11 E11_10"/>
    </vehicle>
    <vehicle id="128" depart="156.77" departSpeed="max">
        <route edges="E41_31 E31_32 E32_42"/>
    </vehicle>
    <vehicle id="129" depart="157.01" departSpeed="max">
        <route edges="E41_31 E31_21 E21_11 E11_10"/>
    </vehicle>
    <vehicle id="130" depart="159.71" departSpeed="max">
        <route edges="E20_21 E21_22 E22_12 E12_13 E13_14"/>
    </vehicle>
    <vehicle id="131" depart="160.83" departSpeed="max">
        <route edges="E30_31 E31_21 E21_11 E11_12 E12_02"/>
    </vehicle>
    <vehicle id="132" depart="161.72" departSpeed="max">
        <route edges="E20_21 E21_22 E22_12 E12_13 E13_03"/>
    </vehicle>
    <vehicle id="133" depart="161.82" departSpeed="max">
        <route edges="E34_33 E33_23 E23_22 E22_21 E21_20"/>
    </vehicle>
    <vehicle id="134" depart="163.94" departSpeed="max">
        <route edges="E24_23 E23_13 E13_03"/>
    </vehicle>
    <vehicle id="135" depart="164.65" departSpeed="max">
        <route edges="E41_31 E31_21 E21_20"/>
    </vehicle>
    <vehicle id="136" depart="170.01" departSpeed="max">
        <route edges="E41_31 E31_32 E32_22 E22_23 E23_13 E13_14"/>
    </vehicle>
    <vehicle id="137" depart="170.95" departSpeed="max">
        <route edges="E43_33 E33_32 E32_22 E22_23 E23_33 E33_43"/>
    </vehicle>
    <vehicle id="138" depart="173.12" departSpeed="max">
        <route edges="E20_21 E21_22 E22_12 E12_13 E13_03"/>
    </vehicle>
    <vehicle id="139" depart="174.06" departSpeed="max">
        <route edges="E14_13 E13_23 E23_24"/>
    </vehicle>
    <vehicle id="140" depart="177.48" departSpeed="max">
        <route edges="E43_33 E33_32 E32_42"/>
    </vehicle>
    <vehicle id="141" depart="178.18" departSpeed="max">
        <route edges="E41_31 E31_21 E21_11 E11_10"/>
    </vehicle>
    <vehicle id="142" depart="178.48" departSpeed="max">
        <route edges="E10_11 E11_21 E21_31 E31_30"/>
    </vehicle>
    <vehicle id="143" depart="179.60" departSpeed="max">
        <route edges="E42_32 E32_33 E33_23 E23_24"/>
    </vehicle>
    <vehicle id="144" depart="180.83" departSpeed="max">
        <route edges="E02_12 E12_22 E22_23 E23_33 E33_34"/>
    </vehicle>
    <vehicle id="145" depart="181.66" departSpeed="max">
        <route edges="E42_32 E32_33 E33_23 E23_13 E13_03"/>
    </vehicle>
    <vehicle id="146" depart="190.24" departSpeed="max">
        <route edges="E34_33 E33_23 E23_13 E13_03"/>
    </vehicle>
    <vehicle id="147" depart="193.71" departSpeed="max">
        <route edges="E42_32 E32_22 E22_21 E21_11 E11_10"/>
    </vehicle>
    <vehicle id="148" depart="194.12" departSpeed="max">
        <route edges="E20_21 E21_31 E31_32 E32_33 E33_43"/>
    </vehicle>
    <vehicle id="149" depart="194.30" departSpeed="max">
        <route edges="E03_13 E13_12 E12_22 E22_21 E21_20"/>
    </vehicle>
    <vehicle id="150" depart="194.59" departSpeed="max">
        <route edges="E14_13 E13_12 E12_11 E11_01"/>
    </vehicle>
    <vehicle id="151" depart="194.60" departSpeed="max">
        <route edges="E01_11 E11_12 E12_13 E13_23 E23_24"/>
    </vehicle>
    <vehicle id="152" depart="194.65" departSpeed="max">
        <route edges="E03_13 E13_23 E23_33 E33_43"/>
    </vehicle>
    <vehicle id="153" depart="195.24" departSpeed="max">
        <route edges="E14_13 E13_12 E12_11 E11_01"/>
    </vehicle>
    <vehicle id="154" depart="196.00" departSpeed="max">
        <route edges="E43_33 E33_32 E32_42"/>
    </vehicle>
    <vehicle id="155" depart="203.06" departSpeed="max">
        <route edges="E30_31 E31_32 E32_42"/>
    </vehicle>
    <vehicle id="156" depart="203.24" departSpeed="max">
        <route edges="E02_12 E12_13 E13_03"/>
    </vehicle>
    <vehicle id="157" depart="204.42" departSpeed="max">
        <route edges="E41_31 E31_21 E21_22 E22_32 E32_31 E31_41"/>
    </vehicle>
    <vehicle id="158" depart="205.89" departSpeed="max">
        <route edges="E02_12 E12_11 E11_21 E21_31 E31_41"/>
    </vehicle>
    <vehicle id="159" depart="210.24" departSpeed="max">
        <route edges="E20_21 E21_11 E11_01"/>
    </vehicle>
    <vehicle id="160" depart="211.60" departSpeed="max">
        <route edges="E01_11 E11_12 E12_13 E13_03"/>
    </vehicle>
    <vehicle id="161" depart="212.42" departSpeed="max">
        <route edges="E41_31 E31_32 E32_22 E22_23 E23_24"/>
    </vehicle>
    <vehicle id="162" depart="215.77" departSpeed="max">
        <route edges="E34_33 E33_23 E23_24"/>
    </vehicle>
    <vehicle id="163" depart="216.72" departSpeed="max">
        <route edges="E02_12 E12_13 E13_03"/>
    </vehicle>
    <vehicle id="164" depart="218.24" departSpeed="max">
        <route edges="E10_11 E11_01"/>
    </vehicle>
    <vehicle id="165" depart="221.01" departSpeed="max">
        <route edges="E20_21 E21_31 E31_32 E32_42"/>
    </vehicle>
    <vehicle id="166" depart="222.94" departSpeed="max">
        <route edges="E20_21 E21_11 E11_10"/>
    </vehicle>
    <vehicle id="167" depart="224.18" departSpeed="max">
        <route edges="E42_32 E32_31 E31_30"/>
    </vehicle>
    <vehicle id="168" depart="225.82" departSpeed="max">
        <route edges="E01_11 E11_12 E12_13 E13_23 E23_24"/>
    </vehicle>
    <vehicle id="169" depart="226.18" departSpeed="max">
        <route edges="E03_13 E13_12 E12_11 E11_10"/>
    </vehicle>
    <vehicle id="170" depart="226.53" departSpeed="max">
        <route edges="E20_21 E21_31 E31_30"/>
    </vehicle>
    <vehicle id="171" depart="229.24" departSpeed="max">
        <route edges="E03_13 E13_14"/>
    </vehicle>
    <vehicle id="172" depart="230.65" departSpeed="max">
        <route edges="E30_31 E31_21 E21_11 E11_10"/>
    </vehicle>
    <vehicle id="173" depart="230.65" departSpeed="max">
        <route edges="E43_33 E33_23 E23_22 E22_12 E12_11 E11_01"/>
    </vehicle>
    <vehicle id="174" depart="230.89" departSpeed="max">
        <route edges="E24_23 E23_22 E22_12 E12_13 E13_23 E23_24"/>
    </vehicle>
    <vehicle id="175" depart="231.77" departSpeed="max">
        <route edges="E43_33 E33_23 E23_24"/>
    </vehicle>
    <vehicle id="176" depart="232.83" departSpeed="max">
        <route edges="E14_13 E13_12 E12_22 E22_21 E21_20"/>
    </vehicle>
    <vehicle id="177" depart="233.83" departSpeed="max">
        <route edges="E30_31 E31_32 E32_33 E33_43"/>
    </vehicle>
    <vehicle id="178" depart="234.12" departSpeed="max">
        <route edges="E10_11 E11_01"/>
    </vehicle>
    <vehicle id="179" depart="234.31" departSpeed="max">
        <route edges="E41_31 E31_32 E32_22 E22_23 E23_13 E13_14"/>
    </vehicle>
    <vehicle id="180" depart="236.13" departSpeed="max">
        <route edges="E34_33 E33_32 E32_31 E31_30"/>
    </vehicle>
    <vehicle id="181" depart="237.54" departSpeed="max">
        <route edges="E41_31 E31_21 E21_22 E22_32 E32_31 E31_41"/>
    </vehicle>
    <vehicle id="182" depart="237.71" departSpeed="max">
        <route edges="E14_13 E13_12 E12_11 E11_01"/>
    </vehicle>
    <vehicle id="183" depart="239.42" departSpeed="max">
        <route edges="E24_23 E23_33 E33_32 E32_42"/>
    </vehicle>
    <vehicle id="184" depart="240.30" departSpeed="max">
        <route edges="E03_13 E13_12 E12_22 E22_32 E32_42"/>
    </vehicle>
    <vehicle id="185" depart="240.59" departSpeed="max">
        <route edges="E20_21 E21_31 E31_41"/>
    </vehicle>
    <vehicle id="186" depart="240.71" departSpeed="max">
        <route edges="E30_31 E31_32 E32_42"/>
    </vehicle>
    <vehicle id="187" depart="241.65" departSpeed="max">
        <route edges="E01_11 E11_21 E21_22 E22_32 E32_42"/>
    </vehicle>
    <vehicle id="188" depart="242.53" departSpeed="max">
        <route edges="E20_21 E21_22 E22_12 E12_13 E13_03"/>
    </vehicle>
    <vehicle id="189" depart="242.89" departSpeed="max">
        <route edges="E01_11 E11_12 E12_02"/>
    </vehicle>
    <vehicle id="190" depart="243.54" departSpeed="max">
        <route edges="E01_11 E11_21 E21_22 E22_32 E32_33 E33_43"/>
    </vehicle>
    <vehicle id="191" depart="243.95" departSpeed="max">
        <route edges="E24_23 E23_33 E33_43"/>
    </vehicle>
    <vehicle id="192" depart="244.18" departSpeed="max">
        <route edges="E24_23 E23_13 E13_03"/>
    </vehicle>
    <vehicle id="193" depart="245.06" departSpeed="max">
        <route edges="E34_33 E33_23 E23_22 E22_12 E12_02"/>
    </vehicle>
    <vehicle id="194" depart="246.30" departSpeed="max">
        <route edges="E14_13 E13_23 E23_33 E33_32 E32_42"/>
    </vehicle>
    <vehicle id="195" depart="246.89" departSpeed="max">
        <route edges="E42_32 E32_33 E33_23 E23_13 E13_03"/>
    </vehicle>
    <vehicle id="196" depart="247.95" departSpeed="max">
        <route edges="E02_12 E12_13 E13_14"/>
    </vehicle>
    <vehicle id="197" depart="248.24" departSpeed="max">
        <route edges="E42_32 E32_31 E31_41"/>
    </vehicle>
    <vehicle id="198" depart="249.95" departSpeed="max">
        <route edges="E42_32 E32_33 E33_23 E23_13 E13_14"/>
    </vehicle>
    <vehicle id="199" depart="253.00" departSpeed="max">
        <route edges="E43_33 E33_23 E23_24"/>
    </vehicle>
    <vehicle id="200" depart="254.06" departSpeed="max">
        <route edges="E24_23 E23_33 E33_43"/>
    </vehicle>
    <vehicle id="201" depart="254.12" departSpeed="max">
        <route edges="E24_23 E23_33 E33_32 E32_42"/>
    </vehicle>
    <vehicle id="202" depart="255.06" departSpeed="max">
        <route edges="E34_33 E33_23 E23_22 E22_21 E21_11 E11_10"/>
    </vehicle>
    <vehicle id="203" depart="255.36" departSpeed="max">
        <route edges="E30_31 E31_32 E32_42"/>
    </vehicle>
    <vehicle id="204" depart="255.59" departSpeed="max">
        <route edges="E24_23 E23_13 E13_03"/>
    </vehicle>
    <vehicle id="205" depart="257.77" departSpeed="max">
        <route edges="E01_11 E11_21 E21_31 E31_30"/>
    </vehicle>
    <vehicle id="206" depart="260.30" departSpeed="max">
        <route edges="E10_11 E11_21 E21_31 E31_30"/>
    </vehicle>
    <vehicle id="207" depart="261.06" departSpeed="max">
        <route edges="E20_21 E21_31 E31_41"/>
    </vehicle>
    <vehicle id="208" depart="263.01" departSpeed="max">
        <route edges="E14_13 E13_12 E12_11 E11_01"/>
    </vehicle>
    <vehicle id="209" depart="265.77" departSpeed="max">
        <route edges="E42_32 E32_33 E33_23 E23_13 E13_14"/>
    </vehicle>
    <vehicle id="210" depart="267.42" departSpeed="max">
        <route edges="E43_33 E33_23 E23_13 E13_03"/>
    </vehicle>
    <vehicle id="211" depart="267.59" departSpeed="max">
        <route edges="E43_33 E33_32 E32_22 E22_23 E23_33 E33_43"/>
    </vehicle>
    <vehicle id="212" depart="268.37" departSpeed="max">
        <route edges="E01_11 E11_21 E21_31 E31_30"/>
    </vehicle>
    <vehicle id="213" depart="268.42" departSpeed="max">
        <route edges="E14_13 E13_23 E23_33 E33_32 E32_42"/>
    </vehicle>
    <vehicle id="214" depart="270.77" departSpeed="max">
        <route edges="E30_31 E31_32 E32_33 E33_43"/>
    </vehicle>
    <vehicle id="215" depart="270.77" departSpeed="max">
        <route edges="E02_12 E12_11 E11_21 E21_31 E31_30"/>
    </vehicle>
    <vehicle id="216" depart="270.83" departSpeed="max">
        <route edges="E41_31 E31_21 E21_11 E11_01"/>
    </vehicle>
    <vehicle id="217" depart="270.88" departSpeed="max">
        <route edges="E01_11 E11_21 E21_22 E22_32 E32_42"/>
    </vehicle>
    <vehicle id="218" depart="271.24" departSpeed="max">
        <route edges="E14_13 E13_23 E23_22 E22_12 E12_13 E13_14"/>
    </vehicle>
    <vehicle id="219" depart="271.66" departSpeed="max">
        <route edges="E24_23 E23_22 E22_32 E32_31 E31_30"/>
    </vehicle>
    <vehicle id="220" depart="271.71" departSpeed="max">
        <route edges="E30_31 E31_32 E32_33 E33_43"/>
    </vehicle>
    <vehicle id="221" depart="273.13" departSpeed="max">
        <route edges="E14_13 E13_23 E23_33 E33_32 E32_42"/>
    </vehicle>
    <vehicle id="222" depart="276.84" departSpeed="max">
        <route edges="E24_23 E23_22 E22_12 E12_13 E13_23 E23_24"/>
    </vehicle>
    <vehicle id="223" depart="277.83" departSpeed="max">
        <route edges="E14_13 E13_12 E12_22 E22_21 E21_31 E31_30"/>
    </vehicle>
    <vehicle id="224" depart="278.25" departSpeed="max">
        <route edges="E10_11 E11_12 E12_22 E22_21 E21_11 E11_10"/>
    </vehicle>
    <vehicle id="225" depart="279.01" departSpeed="max">
        <route edges="E34_33 E33_23 E23_24"/>
    </vehicle>
    <vehicle id="226" depart="279.48" departSpeed="max">
        <route edges="E14_13 E13_23 E23_24"/>
    </vehicle>