<?xml version="1.0" encoding="UTF-8"?>

<!-- generated on 2025-01-31 03:37:55.668413 by randomTrips.py v1_20_0+0002-343658e7c64
<configuration>
    <net-file value="3x3.net.xml"/>
    <output-trip-file value="trips.trips.xml"/>
    <route-file value="3x3_high.rou.xml"/>
    <trip-attributes value="departSpeed='max'"/>
    <random-factor value="1.5"/>
    <fringe-factor value="max"/>
    <insertion-density value="180.0"/>
    <random-depart value="True"/>
</configuration>
-->

<!-- generated on 2025-01-31 03:37:55 by Eclipse SUMO duarouter Version 1.20.0
<configuration xmlns:xsi="http://www.w3.org/2001/XMLSchema-instance" xsi:noNamespaceSchemaLocation="http://sumo.dlr.de/xsd/duarouterConfiguration.xsd">

    <input>
        <net-file value="3x3.net.xml"/>
        <route-files value="trips.trips.xml"/>
    </input>

    <output>
        <output-file value="3x3_high.rou.xml"/>
        <alternatives-output value="NUL"/>
    </output>

    <time>
        <begin value="0"/>
        <end value="3600.0"/>
    </time>

    <report>
        <no-warnings value="true"/>
        <ignore-errors value="true"/>
        <no-step-log value="true"/>
    </report>

</configuration>
-->

<routes xmlns:xsi="http://www.w3.org/2001/XMLSchema-instance" xsi:noNamespaceSchemaLocation="http://sumo.dlr.de/xsd/routes_file.xsd">
    <vehicle id="0" depart="0.19" departSpeed="max">
        <route edges="E30_31 E31_41"/>
    </vehicle>
    <vehicle id="1" depart="0.98" departSpeed="max">
        <route edges="E24_23 E23_22 E22_32 E32_31 E31_30"/>
    </vehicle>
    <vehicle id="2" depart="2.29" departSpeed="max">
        <route edges="E24_23 E23_13 E13_12 E12_11 E11_10"/>
    </vehicle>
    <vehicle id="3" depart="2.57" departSpeed="max">
        <route edges="E41_31 E31_32 E32_22 E22_12 E12_13 E13_03"/>
    </vehicle>
    <vehicle id="4" depart="3.50" departSpeed="max">
        <route edges="E41_31 E31_32 E32_22 E22_23 E23_13 E13_14"/>
    </vehicle>
    <vehicle id="5" depart="3.62" departSpeed="max">
        <route edges="E43_33 E33_23 E23_13 E13_03"/>
    </vehicle>
    <vehicle id="6" depart="4.72" departSpeed="max">
        <route edges="E10_11 E11_21 E21_22 E22_23 E23_24"/>
    </vehicle>
    <vehicle id="7" depart="5.86" departSpeed="max">
        <route edges="E30_31 E31_32 E32_22 E22_23 E23_13 E13_14"/>
    </vehicle>
    <vehicle id="8" depart="5.87" departSpeed="max">
        <route edges="E14_13 E13_12 E12_11 E11_10"/>
    </vehicle>
    <vehicle id="9" depart="6.35" departSpeed="max">
        <route edges="E42_32 E32_22 E22_23 E23_33 E33_32 E32_42"/>
    </vehicle>
    <vehicle id="10" depart="6.56" departSpeed="max">
        <route edges="E02_12 E12_22 E22_32 E32_42"/>
    </vehicle>
    <vehicle id="11" depart="7.13" departSpeed="max">
        <route edges="E10_11 E11_12 E12_22 E22_21 E21_11 E11_10"/>
    </vehicle>
    <vehicle id="12" depart="8.29" departSpeed="max">
        <route edges="E43_33 E33_23 E23_22 E22_12 E12_02"/>
    </vehicle>
    <vehicle id="13" depart="8.44" departSpeed="max">
        <route edges="E43_33 E33_32 E32_42"/>
    </vehicle>
    <vehicle id="14" depart="8.80" departSpeed="max">
        <route edges="E02_12 E12_13 E13_23 E23_24"/>
    </vehicle>
    <vehicle id="15" depart="8.87" departSpeed="max">
        <route edges="E42_32 E32_33 E33_23 E23_24"/>
    </vehicle>
    <vehicle id="16" depart="10.05" departSpeed="max">
        <route edges="E41_31 E31_21 E21_11 E11_10"/>
    </vehicle>
    <vehicle id="17" depart="10.41" departSpeed="max">
        <route edges="E14_13 E13_23 E23_24"/>
    </vehicle>
    <vehicle id="18" depart="10.90" departSpeed="max">
        <route edges="E10_11 E11_12 E12_13 E13_03"/>
    </vehicle>
    <vehicle id="19" depart="12.05" departSpeed="max">
        <route edges="E02_12 E12_11 E11_01"/>
    </vehicle>
    <vehicle id="20" depart="12.15" departSpeed="max">
        <route edges="E10_11 E11_21 E21_31 E31_41"/>
    </vehicle>
    <vehicle id="21" depart="12.99" departSpeed="max">
        <route edges="E03_13 E13_12 E12_22 E22_32 E32_42"/>
    </vehicle>
    <vehicle id="22" depart="13.87" departSpeed="max">
        <route edges="E30_31 E31_32 E32_42"/>
    </vehicle>
    <vehicle id="23" depart="15.62" departSpeed="max">
        <route edges="E24_23 E23_33 E33_34"/>
    </vehicle>
    <vehicle id="24" depart="16.64" departSpeed="max">
        <route edges="E14_13 E13_12 E12_22 E22_21 E21_31 E31_30"/>
    </vehicle>
    <vehicle id="25" depart="16.98" departSpeed="max">
        <route edges="E10_11 E11_21 E21_31 E31_41"/>
    </vehicle>
    <vehicle id="26" depart="17.15" departSpeed="max">
        <route edges="E34_33 E33_32 E32_31 E31_30"/>
    </vehicle>
    <vehicle id="27" depart="17.37" departSpeed="max">
        <route edges="E02_12 E12_13 E13_23 E23_24"/>
    </vehicle>
    <vehicle id="28" depart="17.82" departSpeed="max">
        <route edges="E10_11 E11_21 E21_22 E22_32 E32_33 E33_43"/>
    </vehicle>
    <vehicle id="29" depart="18.60" departSpeed="max">
        <route edges="E30_31 E31_32 E32_22 E22_23 E23_13 E13_14"/>
    </vehicle>
    <vehicle id="30" depart="19.47" departSpeed="max">
        <route edges="E41_31 E31_21 E21_22 E22_32 E32_31 E31_41"/>
    </vehicle>
    <vehicle id="31" depart="19.50" departSpeed="max">
        <route edges="E20_21 E21_22 E22_32 E32_31 E31_21 E21_20"/>
    </vehicle>
    <vehicle id="32" depart="19.82" departSpeed="max">
        <route edges="E20_21 E21_22 E22_12 E12_13 E13_14"/>
    </vehicle>
    <vehicle id="33" depart="21.62" departSpeed="max">
        <route edges="E20_21 E21_22 E22_12 E12_13 E13_03"/>
    </vehicle>
    <vehicle id="34" depart="21.66" departSpeed="max">
        <route edges="E43_33 E33_23 E23_24"/>
    </vehicle>
    <vehicle id="35" depart="21.89" departSpeed="max">
        <route edges="E34_33 E33_43"/>
    </vehicle>
    <vehicle id="36" depart="22.48" departSpeed="max">
        <route edges="E03_13 E13_12 E12_22 E22_21 E21_31 E31_30"/>
    </vehicle>
    <vehicle id="37" depart="22.54" departSpeed="max">
        <route edges="E01_11 E11_12 E12_13 E13_03"/>
    </vehicle>
    <vehicle id="38" depart="23.09" departSpeed="max">
        <route edges="E41_31 E31_32 E32_33 E33_34"/>
    </vehicle>
    <vehicle id="39" depart="23.23" departSpeed="max">
        <route edges="E30_31 E31_21 E21_11 E11_10"/>
    </vehicle>
    <vehicle id="40" depart="23.89" departSpeed="max">
        <route edges="E03_13 E13_12 E12_11 E11_10"/>
    </vehicle>
    <vehicle id="41" depart="24.31" departSpeed="max">
        <route edges="E24_23 E23_13 E13_12 E12_11 E11_10"/>
    </vehicle>
    <vehicle id="42" depart="24.94" departSpeed="max">
        <route edges="E10_11 E11_21 E21_22 E22_32 E32_33 E33_43"/>
    </vehicle>
    <vehicle id="43" depart="25.08" departSpeed="max">
        <route edges="E41_31 E31_21 E21_11 E11_01"/>
    </vehicle>
    <vehicle id="44" depart="25.48" departSpeed="max">
        <route edges="E43_33 E33_32 E32_31 E31_41"/>
    </vehicle>
    <vehicle id="45" depart="26.03" departSpeed="max">
        <route edges="E43_33 E33_32 E32_22 E22_21 E21_11 E11_10"/>
    </vehicle>
    <vehicle id="46" depart="26.73" departSpeed="max">
        <route edges="E24_23 E23_22 E22_32 E32_31 E31_41"/>
    </vehicle>
    <vehicle id="47" depart="26.73" departSpeed="max">
        <route edges="E30_31 E31_32 E32_22 E22_23 E23_24"/>
    </vehicle>
    <vehicle id="48" depart="26.99" departSpeed="max">
        <route edges="E02_12 E12_11 E11_01"/>
    </vehicle>
    <vehicle id="49" depart="27.04" departSpeed="max">
        <route edges="E03_13 E13_12 E12_22 E22_32 E32_42"/>
    </vehicle>
    <vehicle id="50" depart="27.16" departSpeed="max">
        <route edges="E01_11 E11_12 E12_13 E13_14"/>
    </vehicle>
    <vehicle id="51" depart="27.40" departSpeed="max">
        <route edges="E24_23 E23_13 E13_14"/>
    </vehicle>
    <vehicle id="52" depart="27.52" departSpeed="max">
        <route edges="E43_33 E33_32 E32_31 E31_30"/>
    </vehicle>
    <vehicle id="53" depart="27.80" departSpeed="max">
        <route edges="E43_33 E33_32 E32_22 E22_23 E23_33 E33_43"/>
    </vehicle>
    <vehicle id="54" depart="29.61" departSpeed="max">
        <route edges="E43_33 E33_32 E32_31 E31_41"/>
    </vehicle>
    <vehicle id="55" depart="29.62" departSpeed="max">
        <route edges="E01_11 E11_21 E21_20"/>
    </vehicle>
    <vehicle id="56" depart="29.79" departSpeed="max">
        <route edges="E03_13 E13_23 E23_33 E33_43"/>
    </vehicle>
    <vehicle id="57" depart="29.88" departSpeed="max">
        <route edges="E34_33 E33_32 E32_22 E22_23 E23_33 E33_34"/>
    </vehicle>
    <vehicle id="58" depart="30.10" departSpeed="max">
        <route edges="E03_13 E13_14"/>
    </vehicle>
    <vehicle id="59" depart="30.14" departSpeed="max">
        <route edges="E02_12 E12_13 E13_14"/>
    </vehicle>
    <vehicle id="60" depart="30.67" departSpeed="max">
        <route edges="E01_11 E11_12 E12_13 E13_23 E23_24"/>
    </vehicle>
    <vehicle id="61" depart="30.79" departSpeed="max">
        <route edges="E03_13 E13_23 E23_33 E33_43"/>
    </vehicle>
    <vehicle id="62" depart="31.77" departSpeed="max">
        <route edges="E14_13 E13_23 E23_22 E22_32 E32_31 E31_41"/>
    </vehicle>
    <vehicle id="63" depart="32.26" departSpeed="max">
        <route edges="E41_31 E31_32 E32_33 E33_34"/>
    </vehicle>
    <vehicle id="64" depart="32.46" departSpeed="max">
        <route edges="E42_32 E32_33 E33_23 E23_13 E13_03"/>
    </vehicle>
    <vehicle id="65" depart="32.59" departSpeed="max">
        <route edges="E20_21 E21_22 E22_12 E12_13 E13_03"/>
    </vehicle>
    <vehicle id="66" depart="32.63" departSpeed="max">
        <route edges="E01_11 E11_21 E21_31 E31_30"/>
    </vehicle>
    <vehicle id="67" depart="33.22" departSpeed="max">
        <route edges="E14_13 E13_23 E23_33 E33_43"/>
    </vehicle>
    <vehicle id="68" depart="33.39" departSpeed="max">
        <route edges="E43_33 E33_32 E32_22 E22_23 E23_33 E33_43"/>
    </vehicle>
    <vehicle id="69" depart="33.84" departSpeed="max">
        <route edges="E24_23 E23_33 E33_34"/>
    </vehicle>
    <vehicle id="70" depart="34.02" departSpeed="max">
        <route edges="E43_33 E33_34"/>
    </vehicle>
    <vehicle id="71" depart="34.36" departSpeed="max">
        <route edges="E42_32 E32_22 E22_21 E21_11 E11_01"/>
    </vehicle>
    <vehicle id="72" depart="34.72" departSpeed="max">
        <route edges="E01_11 E11_21 E21_20"/>
    </vehicle>
    <vehicle id="73" depart="34.83" departSpeed="max">
        <route edges="E10_11 E11_12 E12_22 E22_21 E21_11 E11_10"/>
    </vehicle>
    <vehicle id="74" depart="34.84" departSpeed="max">
        <route edges="E14_13 E13_23 E23_22 E22_32 E32_31 E31_41"/>
    </vehicle>
    <vehicle id="75" depart="37.58" departSpeed="max">
        <route edges="E14_13 E13_12 E12_11 E11_01"/>
    </vehicle>
    <vehicle id="76" depart="37.67" departSpeed="max">
        <route edges="E20_21 E21_11 E11_12 E12_02"/>
    </vehicle>
    <vehicle id="77" depart="38.19" departSpeed="max">
        <route edges="E24_23 E23_33 E33_34"/>
    </vehicle>
    <vehicle id="78" depart="38.38" departSpeed="max">
        <route edges="E20_21 E21_31 E31_32 E32_33 E33_34"/>
    </vehicle>
    <vehicle id="79" depart="38.48" departSpeed="max">
        <route edges="E01_11 E11_21 E21_22 E22_32 E32_42"/>
    </vehicle>
    <vehicle id="80" depart="38.54" departSpeed="max">
        <route edges="E10_11 E11_21 E21_20"/>
    </vehicle>
    <vehicle id="81" depart="38.76" departSpeed="max">
        <route edges="E14_13 E13_23 E23_22 E22_12 E12_13 E13_14"/>
    </vehicle>
    <vehicle id="82" depart="39.13" departSpeed="max">
        <route edges="E42_32 E32_33 E33_23 E23_24"/>
    </vehicle>
    <vehicle id="83" depart="39.51" departSpeed="max">
        <route edges="E10_11 E11_21 E21_22 E22_32 E32_33 E33_43"/>
    </vehicle>
    <vehicle id="84" depart="39.53" departSpeed="max">
        <route edges="E30_31 E31_21 E21_20"/>
    </vehicle>
    <vehicle id="85" depart="39.83" departSpeed="max">
        <route edges="E02_12 E12_11 E11_21 E21_31 E31_41"/>
    </vehicle>
    <vehicle id="86" depart="40.02" departSpeed="max">
        <route edges="E01_11 E11_12 E12_22 E22_23 E23_33 E33_34"/>
    </vehicle>
    <vehicle id="87" depart="42.93" departSpeed="max">
        <route edges="E34_33 E33_23 E23_22 E22_21 E21_11 E11_10"/>
    </vehicle>
    <vehicle id="88" depart="43.00" departSpeed="max">
        <route edges="E10_11 E11_12 E12_22 E22_21 E21_11 E11_10"/>
    </vehicle>
    <vehicle id="89" depart="43.16" departSpeed="max">
        <route edges="E20_21 E21_22 E22_12 E12_13 E13_03"/>
    </vehicle>
    <vehicle id="90" depart="44.74" departSpeed="max">
        <route edges="E01_11 E11_21 E21_31 E31_41"/>
    </vehicle>
    <vehicle id="91" depart="45.11" departSpeed="max">
        <route edges="E43_33 E33_32 E32_22 E22_23 E23_33 E33_43"/>
    </vehicle>
    <vehicle id="92" depart="45.21" departSpeed="max">
        <route edges="E43_33 E33_32 E32_22 E22_21 E21_11 E11_10"/>
    </vehicle>
    <vehicle id="93" depart="45.96" departSpeed="max">
        <route edges="E20_21 E21_22 E22_23 E23_24"/>
    </vehicle>
    <vehicle id="94" depart="46.01" departSpeed="max">
        <route edges="E30_31 E31_21 E21_11 E11_10"/>
    </vehicle>
    <vehicle id="95" depart="46.95" departSpeed="max">
        <route edges="E34_33 E33_32 E32_42"/>
    </vehicle>
    <vehicle id="96" depart="47.91" departSpeed="max">
        <route edges="E14_13 E13_23 E23_22 E22_32 E32_31 E31_41"/>
    </vehicle>
    <vehicle id="97" depart="48.51" departSpeed="max">
        <route edges="E34_33 E33_32 E32_42"/>
    </vehicle>
    <vehicle id="98" depart="48.78" departSpeed="max">
        <route edges="E02_12 E12_22 E22_23 E23_33 E33_43"/>
    </vehicle>
    <vehicle id="99" depart="49.70" departSpeed="max">
        <route edges="E41_31 E31_21 E21_11 E11_10"/>
    </vehicle>
    <vehicle id="100" depart="50.00" departSpeed="max">
        <route edges="E14_13 E13_12 E12_11 E11_01"/>
    </vehicle>
    <vehicle id="101" depart="50.10" departSpeed="max">
        <route edges="E30_31 E31_21 E21_11 E11_01"/>
    </vehicle>
    <vehicle id="102" depart="50.24" departSpeed="max">
        <route edges="E41_31 E31_21 E21_20"/>
    </vehicle>
    <vehicle id="103" depart="50.44" departSpeed="max">
        <route edges="E30_31 E31_21 E21_11 E11_01"/>
    </vehicle>
    <vehicle id="104" depart="50.56" departSpeed="max">
        <route edges="E20_21 E21_22 E22_12 E12_13 E13_03"/>
    </vehicle>
    <vehicle id="105" depart="50.61" departSpeed="max">
        <route edges="E01_11 E11_21 E21_20"/>
    </vehicle>
    <vehicle id="106" depart="51.16" departSpeed="max">
        <route edges="E30_31 E31_41"/>
    </vehicle>
    <vehicle id="107" depart="52.00" departSpeed="max">
        <route edges="E03_13 E13_23 E23_22 E22_12 E12_13 E13_03"/>
    </vehicle>
    <vehicle id="108" depart="52.18" departSpeed="max">
        <route edges="E02_12 E12_13 E13_03"/>
    </vehicle>
    <vehicle id="109" depart="52.50" departSpeed="max">
        <route edges="E34_33 E33_32 E32_31 E31_41"/>
    </vehicle>
    <vehicle id="110" depart="52.54" departSpeed="max">
        <route edges="E20_21 E21_22 E22_32 E32_31 E31_21 E21_20"/>
    </vehicle>
    <vehicle id="111" depart="54.90" departSpeed="max">
        <route edges="E41_31 E31_21 E21_11 E11_10"/>
    </vehicle>
    <vehicle id="112" depart="56.42" departSpeed="max">
        <route edges="E34_33 E33_32 E32_31 E31_30"/>
    </vehicle>
    <vehicle id="113" depart="57.20" departSpeed="max">
        <route edges="E03_13 E13_23 E23_33 E33_34"/>
    </vehicle>
    <vehicle id="114" depart="57.55" departSpeed="max">
        <route edges="E30_31 E31_21 E21_11 E11_10"/>
    </vehicle>
    <vehicle id="115" depart="57.91" departSpeed="max">
        <route edges="E02_12 E12_13 E13_14"/>
    </vehicle>
    <vehicle id="116" depart="58.11" departSpeed="max">
        <route edges="E10_11 E11_12 E12_02"/>
    </vehicle>
    <vehicle id="117" depart="58.20" departSpeed="max">
        <route edges="E02_12 E12_11 E11_01"/>
    </vehicle>
    <vehicle id="118" depart="60.91" departSpeed="max">
        <route edges="E03_13 E13_23 E23_33 E33_34"/>
    </vehicle>
    <vehicle id="119" depart="61.27" departSpeed="max">
        <route edges="E14_13 E13_23 E23_24"/>
    </vehicle>
    <vehicle id="120" depart="61.90" departSpeed="max">
        <route edges="E34_33 E33_43"/>
    </vehicle>
    <vehicle id="121" depart="62.17" departSpeed="max">
        <route edges="E03_13 E13_14"/>
    </vehicle>
    <vehicle id="122" depart="62.19" departSpeed="max">
        <route edges="E01_11 E11_21 E21_20"/>
    </vehicle>
    <vehicle id="123" depart="62.67" departSpeed="max">
        <route edges="E01_11 E11_10"/>
    </vehicle>
    <vehicle id="124" depart="62.86" departSpeed="max">
        <route edges="E14_13 E13_23 E23_33 E33_43"/>
    </vehicle>
    <vehicle id="125" depart="64.18" departSpeed="max">
        <route edges="E34_33 E33_23 E23_13 E13_03"/>
    </vehicle>
    <vehicle id="126" depart="64.24" departSpeed="max">
        <route edges="E42_32 E32_22 E22_12 E12_02"/>
    </vehicle>
    <vehicle id="127" depart="64.29" departSpeed="max">
        <route edges="E01_11 E11_21 E21_31 E31_30"/>
    </vehicle>
    <vehicle id="128" depart="64.50" departSpeed="max">
        <route edges="E10_11 E11_12 E12_13 E13_03"/>
    </vehicle>
    <vehicle id="129" depart="64.58" departSpeed="max">
        <route edges="E10_11 E11_21 E21_31 E31_30"/>
    </vehicle>
    <vehicle id="130" depart="65.10" departSpeed="max">
        <route edges="E20_21 E21_22 E22_12 E12_13 E13_03"/>
    </vehicle>
    <vehicle id="131" depart="65.87" departSpeed="max">
        <route edges="E20_21 E21_22 E22_12 E12_13 E13_03"/>
    </vehicle>
    <vehicle id="132" depart="66.09" departSpeed="max">
        <route edges="E02_12 E12_11 E11_21 E21_31 E31_41"/>
    </vehicle>
    <vehicle id="133" depart="66.24" departSpeed="max">
        <route edges="E30_31 E31_32 E32_42"/>
    </vehicle>
    <vehicle id="134" depart="66.34" departSpeed="max">
        <route edges="E02_12 E12_13 E13_14"/>
    </vehicle>
    <vehicle id="135" depart="66.48" departSpeed="max">
        <route edges="E41_31 E31_21 E21_22 E22_32 E32_31 E31_41"/>
    </vehicle>
    <vehicle id="136" depart="67.01" departSpeed="max">
        <route edges="E24_23 E23_22 E22_32 E32_31 E31_30"/>
    </vehicle>
    <vehicle id="137" depart="67.30" departSpeed="max">
        <route edges="E03_13 E13_23 E23_22 E22_12 E12_13 E13_03"/>
    </vehicle>
    <vehicle id="138" depart="67.57" departSpeed="max">
        <route edges="E24_23 E23_13 E13_12 E12_11 E11_10"/>
    </vehicle>
    <vehicle id="139" depart="68.04" departSpeed="max">
        <route edges="E02_12 E12_11 E11_21 E21_31 E31_30"/>
    </vehicle>
    <vehicle id="140" depart="68.66" departSpeed="max">
        <route edges="E30_31 E31_21 E21_11 E11_01"/>
    </vehicle>
    <vehicle id="141" depart="71.72" departSpeed="max">
        <route edges="E43_33 E33_34"/>
    </vehicle>
    <vehicle id="142" depart="72.30" departSpeed="max">
        <route edges="E41_31 E31_32 E32_22 E22_12 E12_02"/>
    </vehicle>
    <vehicle id="143" depart="72.88" departSpeed="max">
        <route edges="E20_21 E21_11 E11_10"/>
    </vehicle>
    <vehicle id="144" depart="73.47" departSpeed="max">
        <route edges="E43_33 E33_32 E32_31 E31_30"/>
    </vehicle>
    <vehicle id="145" depart="74.66" departSpeed="max">
        <route edges="E10_11 E11_21 E21_20"/>
    </vehicle>
    <vehicle id="146" depart="74.71" departSpeed="max">
        <route edges="E34_33 E33_23 E23_24"/>
    </vehicle>
    <vehicle id="147" depart="75.37" departSpeed="max">
        <route edges="E02_12 E12_11 E11_10"/>
    </vehicle>
    <vehicle id="148" depart="76.12" departSpeed="max">
        <route edges="E20_21 E21_31 E31_41"/>
    </vehicle>
    <vehicle id="149" depart="76.28" departSpeed="max">
        <route edges="E42_32 E32_31 E31_41"/>
    </vehicle>
    <vehicle id="150" depart="76.41" departSpeed="max">
        <route edges="E42_32 E32_33 E33_23 E23_24"/>
    </vehicle>
    <vehicle id="151" depart="76.73" departSpeed="max">
        <route edges="E14_13 E13_23 E23_22 E22_12 E12_13 E13_14"/>
    </vehicle>
    <vehicle id="152" depart="77.33" departSpeed="max">
        <route edges="E30_31 E31_21 E21_11 E11_10"/>
    </vehicle>
    <vehicle id="153" depart="78.10" departSpeed="max">
        <route edges="E20_21 E21_22 E22_32 E32_31 E31_21 E21_20"/>
    </vehicle>
    <vehicle id="154" depart="78.45" departSpeed="max">
        <route edges="E24_23 E23_33 E33_43"/>
    </vehicle>
    <vehicle id="155" depart="78.71" departSpeed="max">
        <route edges="E41_31 E31_21 E21_11 E11_10"/>
    </vehicle>
    <vehicle id="156" depart="80.07" departSpeed="max">
        <route edges="E10_11 E11_21 E21_22 E22_32 E32_33 E33_43"/>
    </vehicle>
    <vehicle id="157" depart="80.75" departSpeed="max">
        <route edges="E10_11 E11_21 E21_22 E22_32 E32_33 E33_43"/>
    </vehicle>
    <vehicle id="158" depart="82.25" departSpeed="max">
        <route edges="E01_11 E11_21 E21_22 E22_32 E32_33 E33_43"/>
    </vehicle>
    <vehicle id="159" depart="82.96" departSpeed="max">
        <route edges="E03_13 E13_12 E12_22 E22_32 E32_42"/>
    </vehicle>
    <vehicle id="160" depart="83.29" departSpeed="max">
        <route edges="E20_21 E21_22 E22_23 E23_24"/>
    </vehicle>
    <vehicle id="161" depart="84.12" departSpeed="max">
        <route edges="E24_23 E23_13 E13_12 E12_11 E11_10"/>
    </vehicle>
    <vehicle id="162" depart="84.69" departSpeed="max">
        <route edges="E20_21 E21_22 E22_23 E23_24"/>
    </vehicle>
    <vehicle id="163" depart="85.67" departSpeed="max">
        <route edges="E24_23 E23_13 E13_14"/>
    </vehicle>
    <vehicle id="164" depart="86.78" departSpeed="max">
        <route edges="E30_31 E31_21 E21_11 E11_12 E12_02"/>
    </vehicle>
    <vehicle id="165" depart="87.30" departSpeed="max">
        <route edges="E01_11 E11_12 E12_13 E13_23 E23_24"/>
    </vehicle>
    <vehicle id="166" depart="88.15" departSpeed="max">
        <route edges="E24_23 E23_13 E13_12 E12_11 E11_01"/>
    </vehicle>
    <vehicle id="167" depart="88.47" departSpeed="max">
        <route edges="E43_33 E33_23 E23_24"/>
    </vehicle>
    <vehicle id="168" depart="88.70" departSpeed="max">
        <route edges="E24_23 E23_22 E22_32 E32_31 E31_41"/>
    </vehicle>
    <vehicle id="169" depart="89.14" departSpeed="max">
        <route edges="E10_11 E11_21 E21_22 E22_23 E23_33 E33_34"/>
    </vehicle>
    <vehicle id="170" depart="89.22" departSpeed="max">
        <route edges="E10_11 E11_12 E12_13 E13_03"/>
    </vehicle>
    <vehicle id="171" depart="89.42" departSpeed="max">
        <route edges="E02_12 E12_22 E22_21 E21_11 E11_12 E12_02"/>
    </vehicle>
    <vehicle id="172" depart="89.53" departSpeed="max">
        <route edges="E24_23 E23_13 E13_03"/>
    </vehicle>
    <vehicle id="173" depart="89.95" departSpeed="max">
        <route edges="E30_31 E31_32 E32_33 E33_43"/>
    </vehicle>
    <vehicle id="174" depart="91.75" departSpeed="max">
        <route edges="E10_11 E11_12 E12_22 E22_21 E21_11 E11_10"/>
    </vehicle>
    <vehicle id="175" depart="92.67" departSpeed="max">
        <route edges="E42_32 E32_22 E22_21 E21_11 E11_01"/>
    </vehicle>
    <vehicle id="176" depart="92.79" departSpeed="max">
        <route edges="E43_33 E33_32 E32_22 E22_23 E23_33 E33_43"/>
    </vehicle>
    <vehicle id="177" depart="93.07" departSpeed="max">
        <route edges="E03_13 E13_12 E12_11 E11_10"/>
    </vehicle>
    <vehicle id="178" depart="94.33" departSpeed="max">
        <route edges="E30_31 E31_21 E21_22 E22_32 E32_31 E31_30"/>
    </vehicle>
    <vehicle id="179" depart="95.43" departSpeed="max">
        <route edges="E43_33 E33_23 E23_13 E13_03"/>
    </vehicle>
    <vehicle id="180" depart="95.46" departSpeed="max">
        <route edges="E43_33 E33_34"/>
    </vehicle>
    <vehicle id="181" depart="95.63" departSpeed="max">
        <route edges="E10_11 E11_12 E12_22 E22_21 E21_11 E11_10"/>
    </vehicle>
    <vehicle id="182" depart="96.69" departSpeed="max">
        <route edges="E42_32 E32_33 E33_23 E23_13 E13_03"/>
    </vehicle>
    <vehicle id="183" depart="97.23" departSpeed="max">
        <route edges="E43_33 E33_32 E32_31 E31_30"/>
    </vehicle>
    <vehicle id="184" depart="97.89" departSpeed="max">
        <route edges="E01_11 E11_12 E12_13 E13_14"/>
    </vehicle>
    <vehicle id="185" depart="97.94" departSpeed="max">
        <route edges="E34_33 E33_23 E23_13 E13_03"/>
    </vehicle>
    <vehicle id="186" depart="100.06" departSpeed="max">
        <route edges="E10_11 E11_01"/>
    </vehicle>
    <vehicle id="187" depart="100.88" departSpeed="max">
        <route edges="E30_31 E31_32 E32_33 E33_34"/>
    </vehicle>
    <vehicle id="188" depart="101.10" departSpeed="max">
        <route edges="E43_33 E33_23 E23_24"/>
    </vehicle>
    <vehicle id="189" depart="101.37" departSpeed="max">
        <route edges="E34_33 E33_32 E32_31 E31_41"/>
    </vehicle>
    <vehicle id="190" depart="101.60" departSpeed="max">
        <route edges="E43_33 E33_23 E23_13 E13_03"/>
    </vehicle>
    <vehicle id="191" depart="102.10" departSpeed="max">
        <route edges="E30_31 E31_21 E21_22 E22_32 E32_31 E31_30"/>
    </vehicle>
    <vehicle id="192" depart="102.23" departSpeed="max">
        <route edges="E03_13 E13_12 E12_22 E22_21 E21_20"/>
    </vehicle>
    <vehicle id="193" depart="102.34" departSpeed="max">
        <route edges="E10_11 E11_12 E12_02"/>
    </vehicle>
    <vehicle id="194" depart="103.16" departSpeed="max">
        <route edges="E30_31 E31_32 E32_33 E33_34"/>
    </vehicle>
    <vehicle id="195" depart="103.39" departSpeed="max">
        <route edges="E14_13 E13_12 E12_22 E22_21 E21_20"/>
    </vehicle>
    <vehicle id="196" depart="103.92" departSpeed="max">
        <route edges="E34_33 E33_23 E23_22 E22_21 E21_20"/>
    </vehicle>
    <vehicle id="197" depart="104.25" departSpeed="max">
        <route edges="E02_12 E12_11 E11_21 E21_20"/>
    </vehicle>
    <vehicle id="198" depart="105.34" departSpeed="max">
        <route edges="E24_23 E23_22 E22_21 E21_20"/>
    </vehicle>
    <vehicle id="199" depart="105.74" departSpeed="max">
        <route edges="E41_31 E31_32 E32_22 E22_12 E12_02"/>
    </vehicle>
    <vehicle id="200" depart="106.44" departSpeed="max">
        <route edges="E24_23 E23_33 E33_43"/>
    </vehicle>
    <vehicle id="201" depart="106.68" departSpeed="max">
        <route edges="E03_13 E13_23 E23_22 E22_12 E12_13 E13_03"/>
    </vehicle>
    <vehicle id="202" depart="106.71" departSpeed="max">
        <route edges="E10_11 E11_21 E21_22 E22_23 E23_33 E33_34"/>
    </vehicle>
    <vehicle id="203" depart="107.18" departSpeed="max">
        <route edges="E41_31 E31_21 E21_22 E22_32 E32_31 E31_41"/>
    </vehicle>
    <vehicle id="204" depart="107.21" departSpeed="max">
        <route edges="E03_13 E13_12 E12_11 E11_10"/>
    </vehicle>
    <vehicle id="205" depart="107.87" departSpeed="max">
        <route edges="E20_21 E21_22 E22_32 E32_31 E31_21 E21_20"/>
    </vehicle>
    <vehicle id="206" depart="109.04" departSpeed="max">
        <route edges="E30_31 E31_32 E32_22 E22_23 E23_13 E13_14"/>
    </vehicle>
    <vehicle id="207" depart="109.51" departSpeed="max">
        <route edges="E34_33 E33_23 E23_22 E22_21 E21_11 E11_10"/>
    </vehicle>
    <vehicle id="208" depart="109.53" departSpeed="max">
        <route edges="E34_33 E33_23 E23_22 E22_12 E12_11 E11_01"/>
    </vehicle>
    <vehicle id="209" depart="109.96" departSpeed="max">
        <route edges="E02_12 E12_13 E13_14"/>
    </vehicle>
    <vehicle id="210" depart="110.24" departSpeed="max">
        <route edges="E02_12 E12_11 E11_01"/>
    </vehicle>
    <vehicle id="211" depart="110.79" departSpeed="max">
        <route edges="E41_31 E31_32 E32_33 E33_43"/>
    </vehicle>
    <vehicle id="212" depart="112.34" departSpeed="max">
        <route edges="E02_12 E12_22 E22_32 E32_42"/>
    </vehicle>
    <vehicle id="213" depart="113.46" departSpeed="max">
        <route edges="E10_11 E11_21 E21_22 E22_32 E32_33 E33_43"/>
    </vehicle>
    <vehicle id="214" depart="114.31" departSpeed="max">
        <route edges="E30_31 E31_32 E32_42"/>
    </vehicle>
    <vehicle id="215" depart="115.12" departSpeed="max">
        <route edges="E01_11 E11_21 E21_22 E22_32 E32_42"/>
    </vehicle>
    <vehicle id="216" depart="116.92" departSpeed="max">
        <route edges="E24_23 E23_33 E33_32 E32_42"/>
    </vehicle>
    <vehicle id="217" depart="117.13" departSpeed="max">
        <route edges="E42_32 E32_22 E22_21 E21_11 E11_10"/>
    </vehicle>
    <vehicle id="218" depart="118.06" departSpeed="max">
        <route edges="E02_12 E12_11 E11_21 E21_31 E31_41"/>
    </vehicle>
    <vehicle id="219" depart="118.39" departSpeed="max">
        <route edges="E42_32 E32_22 E22_23 E23_33 E33_32 E32_42"/>
    </vehicle>
    <vehicle id="220" depart="118.59" departSpeed="max">
        <route edges="E10_11 E11_21 E21_20"/>
    </vehicle>
    <vehicle id="221" depart="118.60" departSpeed="max">
        <route edges="E03_13 E13_23 E23_24"/>
    </vehicle>
    <vehicle id="222" depart="118.72" departSpeed="max">
        <route edges="E10_11 E11_21 E21_22 E22_23 E23_24"/>
    </vehicle>
    <vehicle id="223" depart="118.81" departSpeed="max">
        <route edges="E01_11 E11_12 E12_22 E22_21 E21_11 E11_01"/>
    </vehicle>
    <vehicle id="224" depart="118.99" departSpeed="max">
        <route edges="E24_23 E23_13 E13_12 E12_11 E11_10"/>
    </vehicle>
    <vehicle id="225" depart="119.16" departSpeed="max">
        <route edges="E42_32 E32_33 E33_23 E23_13 E13_14"/>
    </vehicle>
    <vehicle id="226" depart="119.29" departSpeed="max">
        <route edges="E01_11 E11_12 E12_02"/>
    </vehicle>