<?xml version="1.0" encoding="UTF-8"?>

<!-- generated on 2025-01-15 00:46:55.670891 by randomTrips.py v1_20_0+0002-343658e7c64
<configuration>
    <net-file value="cologne8.net.xml"/>
    <output-trip-file value="trips.trips.xml"/>
    <route-file value="cologne8_v2_high.rou.xml"/>
    <trip-attributes value="departSpeed='max'"/>
    <fringe-factor value="max"/>
    <insertion-density value="400.0"/>
</configuration>
-->

<!-- generated on 2025-01-15 00:46:55 by Eclipse SUMO duarouter Version 1.20.0
<configuration xmlns:xsi="http://www.w3.org/2001/XMLSchema-instance" xsi:noNamespaceSchemaLocation="http://sumo.dlr.de/xsd/duarouterConfiguration.xsd">

    <input>
        <net-file value="cologne8.net.xml"/>
        <route-files value="trips.trips.xml"/>
    </input>

    <output>
        <output-file value="cologne8_v2_high.rou.xml"/>
        <alternatives-output value="NUL"/>
    </output>

    <time>
        <begin value="0"/>
        <end value="3600.0"/>
    </time>

    <report>
        <no-warnings value="true"/>
        <ignore-errors value="true"/>
        <no-step-log value="true"/>
    </report>

</configuration>
-->

<routes xmlns:xsi="http://www.w3.org/2001/XMLSchema-instance" xsi:noNamespaceSchemaLocation="http://sumo.dlr.de/xsd/routes_file.xsd">
    <vehicle id="0" depart="0.00" departSpeed="max">
        <route edges="160807420 -23686088#1 23686088#1 133081987#0 133081987#3 133081985#0 133081985#1 28675510#0 28675510#1 28675510#4 -22917421#14 -186623965#16 -186623965#14"/>
    </vehicle>
    <vehicle id="3" depart="1.70" departSpeed="max">
        <route edges="24675285 23656410#0 133081985#0 133081985#1 28675510#0 28675510#1 28675510#4 -22917421#14 -22917421#4"/>
    </vehicle>
    <vehicle id="4" depart="2.27" departSpeed="max">
        <route edges="-297047309#0 -28675494#1 -297047308 -28675493 -297047307 -297047310#3 -297047310#2 -186623965#14"/>
    </vehicle>
    <vehicle id="5" depart="2.83" departSpeed="max">
        <route edges="-23840971 23840713#2 23840712#1 23840712#4 22959550#4 -28675510#0 23283579#0 23286179#0 23286179#1 23286180"/>
    </vehicle>
    <vehicle id="7" depart="3.97" departSpeed="max">
        <route edges="160807420 -23686088#1 23686088#1 133081987#0 133081987#3 133081985#0 133081985#1 28675510#0 28675510#1 23840713#0 23840713#2 23840712#1 23840887#0 23840887#2 23840935"/>
    </vehicle>
    <vehicle id="8" depart="4.53" departSpeed="max">
        <route edges="-23840971 23840971"/>
    </vehicle>
    <vehicle id="9" depart="5.10" departSpeed="max">
        <route edges="23647118 8716807#6 -297047308 -28675493 -297047307 -297047310#3 -297047310#2 -186623965#14"/>
    </vehicle>
    <vehicle id="10" depart="5.67" departSpeed="max">
        <route edges="23647118 -8716807#5 -8716807#4 23283470#3 23283470#5 24610382"/>
    </vehicle>
    <vehicle id="11" depart="6.23" departSpeed="max">
        <route edges="-25166682#0 -23648008#0 -297047307 22959550#0 22959550#1 22959550#3 -23840712#4 -23840712#3 290365598#0 -23840888#0"/>
    </vehicle>
    <vehicle id="13" depart="7.37" departSpeed="max">
        <route edges="-22959475#4 -22917421#14 -22917421#4"/>
    </vehicle>
    <vehicle id="14" depart="7.93" departSpeed="max">
        <route edges="23840712#0 23840712#1 23840712#4 22959550#4 28675510#1 23840713#0 23840971"/>
    </vehicle>
    <vehicle id="15" depart="8.50" departSpeed="max">
        <route edges="23647118 -8716807#5 -8716807#4 23283470#3 23283470#5 24610382"/>
    </vehicle>
    <vehicle id="16" depart="9.06" departSpeed="max">
        <route edges="-42925825#2 155600123#0 297047310#3 297047310#4 28675493 297047308 -8716807#6 -8716807#5 -8716807#4 -8716807#0 -133081985#1 -133081985#0 -309744810#1 -133081987#2 -23686088#1 -23686088#0 4936412"/>
    </vehicle>
    <vehicle id="17" depart="9.63" departSpeed="max">
        <route edges="-28675510#11 -28675510#5 23840713#0 23840713#2 23840712#1 23840887#0 23840887#2 23840935"/>
    </vehicle>
    <vehicle id="18" depart="10.20" departSpeed="max">
        <route edges="23840712#0 23840712#1 23840712#4 22959550#4 28675510#1 23840713#0 23840972"/>
    </vehicle>
    <vehicle id="19" depart="10.76" departSpeed="max">
        <route edges="23840888#0 -290365598#1 23840712#1 23840712#4 22959550#4 28675510#1 23840713#0 23840971"/>
    </vehicle>
    <vehicle id="20" depart="11.33" departSpeed="max">
        <route edges="194017408#0 -194017408#1"/>
    </vehicle>
    <vehicle id="21" depart="11.90" departSpeed="max">
        <route edges="-23840972 23840713#2 23840712#1 23840887#0 23840887#2 23840887#3 -297047310#2 186623965#15 186623965#17"/>
    </vehicle>
    <vehicle id="22" depart="12.46" departSpeed="max">
        <route edges="-22959475#4 -28675510#5 -28675510#3 -28675510#0 -133081985#1 -133081985#0 -309744810#1 -133081987#2 -23686088#1 -23686088#0 155723703#0"/>
    </vehicle>
    <vehicle id="23" depart="13.03" departSpeed="max">
        <route edges="-22959475#4 -22917421#14 186623965#17"/>
    </vehicle>
    <vehicle id="24" depart="13.60" departSpeed="max">
        <route edges="160807420 -23686088#1 23686088#1 133081987#0 133081987#3 133081985#0 133081985#1 28675510#0 28675510#1 28675510#4 22959475#0"/>
    </vehicle>
    <vehicle id="26" depart="14.73" departSpeed="max">
        <route edges="-24487264 -23648008#3 -23648008#1 -23648008#0 -297047307 -297047310#3 -297047310#2 42925825#0"/>
    </vehicle>
    <vehicle id="27" depart="15.30" departSpeed="max">
        <route edges="160807420 -23686088#1 23686088#1 133081987#0 133081987#3 133081985#0 133081985#1 28675510#0 28675510#1 23840713#0 23840971"/>
    </vehicle>
    <vehicle id="28" depart="15.86" departSpeed="max">
        <route edges="-23840935 23840887#3 297047310#3 297047310#4 28675493 297047308 -8716807#6 -8716807#5 -8716807#4 23283470#3 23283470#5 24610382"/>
    </vehicle>
    <vehicle id="29" depart="16.43" departSpeed="max">
        <route edges="-23840935 23840887#3 297047310#3 22959550#0 22959550#1 22959550#3 22959550#4 28675510#1 28675510#4 22959475#0"/>
    </vehicle>
    <vehicle id="30" depart="17.00" departSpeed="max">
        <route edges="60909001 23286179#2 -23283579#1 -23283579#0 28675510#0 28675510#1 23840713#0 23840972"/>
    </vehicle>
    <vehicle id="31" depart="17.56" departSpeed="max">
        <route edges="-4936412 23686088#0 23686088#1 133081987#0 133081987#3 133081985#0 133081985#1 8716807#0 8716807#1 8716807#5 8716807#6 -297047308 -28675493 23648008#0 23648008#1 23648008#2 24487264"/>
    </vehicle>
    <vehicle id="32" depart="18.13" departSpeed="max">
        <route edges="23840712#0 23840712#1 23840712#4 22959550#4 28675510#1 28675510#4 28675510#7"/>
    </vehicle>
    <vehicle id="33" depart="18.70" departSpeed="max">
        <route edges="-23840972 23840713#2 23840712#1 23840887#0 23840887#2 23840887#3 -297047310#2 -186623965#14"/>
    </vehicle>
    <vehicle id="34" depart="19.26" departSpeed="max">
        <route edges="-24610382 24694889 -23283472#2 23283473 -23686088#0 155723703#0"/>
    </vehicle>
    <vehicle id="35" depart="19.83" departSpeed="max">
        <route edges="-23840971 23840713#2 23840712#1 23840887#0 23840887#2 23840887#3 -297047310#2 42925825#0"/>
    </vehicle>
    <vehicle id="36" depart="20.40" departSpeed="max">
        <route edges="23840888#0 23840888#1 23840887#2 23840887#3 297047310#3 297047310#4 23648008#0 23648008#1 23648008#2 225249129#0 225249129#1"/>
    </vehicle>
    <vehicle id="37" depart="20.96" departSpeed="max">
        <route edges="160807420 -23686088#1 23686088#1 133081987#0 23283436"/>
    </vehicle>
    <vehicle id="38" depart="21.53" departSpeed="max">
        <route edges="24675285 23656410#0 133081985#0 133081985#1 23283579#0 23283579#1"/>
    </vehicle>
    <vehicle id="39" depart="22.10" departSpeed="max">
        <route edges="-24487264 -23648008#3 -23648008#1 -23648008#0 28675493 297047308 -8716807#6 -8716807#5 -8716807#4 -8716807#0 -133081985#1 -133081985#0 -309744810#1 -133081987#2 -23686088#1 -23686088#0 155723703#0"/>
    </vehicle>
    <vehicle id="40" depart="22.66" departSpeed="max">
        <route edges="-4936412 155723703#0"/>
    </vehicle>
    <vehicle id="41" depart="23.23" departSpeed="max">
        <route edges="-4936412 23686088#0 23686088#1 133081987#0 133081987#3 133081985#0 133081985#1 8716807#0 8716807#1 8716807#5 8716807#6 -297047308 -28675493 23648008#0 23648008#1 323450710#0"/>
    </vehicle>
    <vehicle id="43" depart="24.36" departSpeed="max">
        <route edges="60909001 23286180"/>
    </vehicle>
    <vehicle id="45" depart="25.50" departSpeed="max">
        <route edges="-22959475#4 -28675510#5 23840713#0 23840972"/>
    </vehicle>
    <vehicle id="46" depart="26.06" departSpeed="max">
        <route edges="23647118 -8716807#5 -8716807#4 -8716807#0 -133081985#1 -133081985#0 -309744810#1 23283436"/>
    </vehicle>
    <vehicle id="47" depart="26.63" departSpeed="max">
        <route edges="-225249129#1 -225249129#0 -23648008#3 -23648008#1 -23648008#0 -297047307 22959550#0 22959550#1 22959550#3 22959550#4 28675510#1 28675510#4 22959475#0"/>
    </vehicle>
    <vehicle id="48" depart="27.19" departSpeed="max">
        <route edges="60909001 23286180"/>
    </vehicle>
    <vehicle id="49" depart="27.76" departSpeed="max">
        <route edges="60909001 23286179#2 -23283579#1 -23283579#0 8716807#0 8716807#1 8716807#5 8716807#6 -297047308 -28675493 23648008#0 23648008#1 23648008#2 225249129#0 323416262"/>
    </vehicle>
    <vehicle id="50" depart="28.33" departSpeed="max">
        <route edges="-186623965#18 22917421#5 -28675510#5 -28675510#3 -28675510#0 8716807#0 23283470#3 23283470#5 24610382"/>
    </vehicle>
    <vehicle id="51" depart="28.89" departSpeed="max">
        <route edges="186623965#9 155600123#0 297047310#3 297047310#4 28675493 297047308 -8716807#6 -8716807#5 -8716807#4 -8716807#0 23283579#0 23286179#0 23286179#1 23286180"/>
    </vehicle>
    <vehicle id="52" depart="29.46" departSpeed="max">
        <route edges="-24487264 -23648008#3 -23648008#1 -23648008#0 -297047307 22959550#0 22959550#1 22959550#3 22959550#4 28675510#1 23840713#0 23840972"/>
    </vehicle>
    <vehicle id="53" depart="30.03" departSpeed="max">
        <route edges="-23283580#1 23286179#1 23286179#2 -23283579#1 23283579#1"/>
    </vehicle>
    <vehicle id="54" depart="30.59" departSpeed="max">
        <route edges="-323450710#0 -23648008#1 -23648008#0 -297047307 -297047310#3 -297047310#2 42925825#0"/>
    </vehicle>
    <vehicle id="55" depart="31.16" departSpeed="max">
        <route edges="23840888#0 -290365598#1 23840712#1 23840712#4 22959550#4 -28675510#0 -133081985#1 -133081985#0 -309744810#1 -133081987#2 -23686088#1 -23686088#0 155723703#0"/>
    </vehicle>
    <vehicle id="56" depart="31.73" departSpeed="max">
        <route edges="-353069169#0 -225249129#0 -23648008#3 -23648008#1 -23648008#0 -297047307 22959550#0 22959550#1 22959550#3 -23840712#4 -23840712#3 290365598#0 -23840888#0"/>
    </vehicle>
    <vehicle id="57" depart="32.29" departSpeed="max">
        <route edges="24675285 23656410#0 133081985#0 133081985#1 8716807#0 8716807#1 8716807#5 8716807#6 -297047308 -28675493 23648008#0 23648008#1 23648008#2 225249129#0 323416262"/>
    </vehicle>
    <vehicle id="58" depart="32.86" departSpeed="max">
        <route edges="-24610382 24694889 -23283472#2 23283473 23686088#1 133081987#0 133081987#3 133081985#0 133081985#1 28675510#0 28675510#1 23840713#0 23840972"/>
    </vehicle>
    <vehicle id="59" depart="33.43" departSpeed="max">
        <route edges="132042183 -23283472#2 23283473 23686088#1 133081987#0 133081987#3 133081985#0 133081985#1 28675510#0 28675510#1 23840713#0 23840713#2 -23840712#0"/>
    </vehicle>
    <vehicle id="60" depart="33.99" departSpeed="max">
        <route edges="22917421#3 22917421#5 -28675510#5 23840713#0 23840713#2 23840712#1 23840887#0 23840887#2 23840935"/>
    </vehicle>
    <vehicle id="61" depart="34.56" departSpeed="max">
        <route edges="23647118 -8716807#5 -8716807#4 -8716807#0 23283579#0 23286179#0 23286179#1 23286180"/>
    </vehicle>
    <vehicle id="62" depart="35.13" departSpeed="max">
        <route edges="-186623965#18 -186623965#16 155600123#0 297047310#3 297047310#4 23648008#0 23648008#1 23648008#2 225249129#0 225249129#1"/>
    </vehicle>
    <vehicle id="63" depart="35.69" departSpeed="max">
        <route edges="-186623965#18 -186623965#16 42925825#0"/>
    </vehicle>
    <vehicle id="64" depart="36.26" departSpeed="max">
        <route edges="23840888#0 23840888#1 23840887#2 23840887#3 297047310#3 297047310#4 28675493 297047308 28675494#0 297047309#0"/>
    </vehicle>
    <vehicle id="66" depart="37.39" departSpeed="max">
        <route edges="23840888#0 23840888#1 23840887#2 23840887#3 -297047310#2 42925825#0"/>
    </vehicle>
    <vehicle id="67" depart="37.96" departSpeed="max">
        <route edges="-22959475#4 -28675510#5 -28675510#3 -28675510#0 23283579#0 23286179#0 23283580#0"/>
    </vehicle>
    <vehicle id="68" depart="38.53" departSpeed="max">
        <route edges="-225249129#1 -225249129#0 -23648008#3 -23648008#1 25166682#0"/>
    </vehicle>
    <vehicle id="69" depart="39.09" departSpeed="max">
        <route edges="22917421#3 22917421#5 -28675510#5 23840713#0 23840713#2 -23840712#0"/>
    </vehicle>
    <vehicle id="70" depart="39.66" departSpeed="max">
        <route edges="-323450710#0 -23648008#1 -23648008#0 -297047307 22959550#0 22959550#1 22959550#3 -23840712#4 23840887#0 23840887#2 23840935"/>
    </vehicle>
    <vehicle id="71" depart="40.23" departSpeed="max">
        <route edges="-24487264 225249129#0 323416262"/>
    </vehicle>
    <vehicle id="73" depart="41.36" departSpeed="max">
        <route edges="-42925825#2 155600123#0 297047310#3 297047310#4 28675493 297047308 -8716807#6 -8716807#5 -8716807#4 23283470#3 23283470#5 24610382"/>
    </vehicle>
    <vehicle id="74" depart="41.93" departSpeed="max">
        <route edges="-23840971 23840713#2 23840712#1 23840887#0 23840887#2 23840887#3 297047310#3 297047310#4 23648008#0 23648008#1 23648008#2 225249129#0 225249129#1"/>
    </vehicle>
    <vehicle id="75" depart="42.49" departSpeed="max">
        <route edges="60909001 23286179#2 -23283579#1 -23283579#0 28675510#0 28675510#1 23840713#0 23840972"/>
    </vehicle>
    <vehicle id="76" depart="43.06" departSpeed="max">
        <route edges="-297047309#0 -28675494#1 -8716807#6 -8716807#5 -8716807#4 -8716807#0 23283579#0 23286179#0 23286179#1 23286180"/>
    </vehicle>
    <vehicle id="78" depart="44.19" departSpeed="max">
        <route edges="-25166682#0 -23648008#0 -297047307 22959550#0 22959550#1 22959550#3 22959550#4 28675510#1 23840713#0 23840971"/>
    </vehicle>
    <vehicle id="80" depart="45.32" departSpeed="max">
        <route edges="-225249129#1 -225249129#0 -23648008#3 -23648008#1 -23648008#0 -297047307 22959550#0 22959550#1 22959550#3 22959550#4 28675510#1 23840713#0 23840972"/>
    </vehicle>
    <vehicle id="81" depart="45.89" departSpeed="max">
        <route edges="-23840972 23840713#2 23840712#1 23840887#0 23840887#2 23840887#3 297047310#3 297047310#4 23648008#0 23648008#1 323450710#0"/>
    </vehicle>
    <vehicle id="83" depart="47.02" departSpeed="max">
        <route edges="-23840972 23840713#2 23840712#1 23840887#0 23840887#2 23840887#3 297047310#3 297047310#4 23648008#0 23648008#1 23648008#2 24487264"/>
    </vehicle>
    <vehicle id="84" depart="47.59" departSpeed="max">
        <route edges="-23840971 23840713#2 -23840712#0"/>
    </vehicle>
    <vehicle id="86" depart="48.72" departSpeed="max">
        <route edges="-323450710#0 -23648008#1 -23648008#0 -297047307 22959550#0 22959550#1 22959550#3 22959550#4 28675510#1 28675510#4 28675510#7"/>
    </vehicle>
    <vehicle id="87" depart="49.29" departSpeed="max">
        <route edges="23647118 -8716807#5 22959552#4 22959552#5 22959550#3 -23840712#4 -23840712#3 290365598#0 -23840888#0"/>
    </vehicle>
    <vehicle id="88" depart="49.86" departSpeed="max">
        <route edges="-22959475#4 -28675510#5 -28675510#3 -28675510#0 23283579#0 23283579#1"/>
    </vehicle>
    <vehicle id="89" depart="50.42" departSpeed="max">
        <route edges="-297047309#0 -28675494#1 -8716807#6 -8716807#5 -8716807#4 -8716807#0 23283579#0 23286179#0 23283580#0"/>
    </vehicle>
    <vehicle id="91" depart="51.56" departSpeed="max">
        <route edges="60909001 23286179#2 -23283579#1 -23283579#0 28675510#0 28675510#1 28675510#4 -22917421#14 -22917421#4"/>
    </vehicle>
    <vehicle id="92" depart="52.12" departSpeed="max">
        <route edges="-28675510#11 -28675510#5 -28675510#3 -28675510#0 8716807#0 8716807#1 8716807#5 8716807#6 -297047308 -28675493 23648008#0 23648008#1 23648008#2 225249129#0 225249129#1"/>
    </vehicle>
    <vehicle id="93" depart="52.69" departSpeed="max">
        <route edges="23840888#0 -290365598#1 23840712#1 23840712#4 22959550#4 -28675510#0 -133081985#1 -133081985#0 -309744810#1 -133081987#2 -23686088#1 -23686088#0 155723703#0"/>
    </vehicle>
    <vehicle id="94" depart="53.26" departSpeed="max">
        <route edges="-23840971 23840713#2 23840712#1 23840712#4 22959550#4 -28675510#0 23283579#0 23283579#1"/>
    </vehicle>
    <vehicle id="95" depart="53.82" departSpeed="max">
        <route edges="-297047309#0 -28675494#1 -297047308 -28675493 -297047307 -297047310#3 -297047310#2 186623965#15 186623965#17"/>
    </vehicle>
    <vehicle id="96" depart="54.39" departSpeed="max">
        <route edges="-23840972 23840713#2 23840712#1 23840887#0 23840887#2 23840887#3 -297047310#2 42925825#0"/>
    </vehicle>
    <vehicle id="97" depart="54.96" departSpeed="max">
        <route edges="-297047309#0 -28675494#1 -297047308 -28675493 23648008#0 23648008#1 23648008#2 225249129#0 323416262"/>
    </vehicle>
    <vehicle id="99" depart="56.09" departSpeed="max">
        <route edges="60909001 23286179#2 -23283579#1 -23283579#0 8716807#0 8716807#1 8716807#5 8716807#6 28675494#0 297047309#0"/>
    </vehicle>
    <vehicle id="100" depart="56.66" departSpeed="max">
        <route edges="60909001 23286179#2 -23283579#1 -23283579#0 8716807#0 8716807#1 8716807#5 8716807#6 -297047308 -28675493 -297047307 -297047310#3 -297047310#2 42925825#0"/>
    </vehicle>
    <vehicle id="101" depart="57.22" departSpeed="max">
        <route edges="23840712#0 290365598#0 -23840888#0"/>
    </vehicle>
    <vehicle id="104" depart="58.92" departSpeed="max">
        <route edges="-28675510#11 -28675510#5 -28675510#3 -28675510#0 -133081985#1 -133081985#0 -309744810#1 -133081987#2 -23686088#1 -23686088#0 4936412"/>
    </vehicle>
    <vehicle id="105" depart="59.49" departSpeed="max">
        <route edges="-24487264 -23648008#3 -23648008#1 -23648008#0 -297047307 22959550#0 22959550#1 22959550#3 22959550#4 28675510#1 28675510#4 28675510#7"/>
    </vehicle>
    <vehicle id="106" depart="60.06" departSpeed="max">
        <route edges="-323450710#0 -23648008#1 -23648008#0 28675493 297047308 -8716807#6 -8716807#5 -8716807#4 -8716807#0 -133081985#1 -133081985#0 -309744810#1 23283436"/>
    </vehicle>
    <vehicle id="108" depart="61.19" departSpeed="max">
        <route edges="-4936412 23686088#0 23686088#1 133081987#0 133081987#3 133081985#0 133081985#1 8716807#0 23283470#3 23283470#5 24610382"/>
    </vehicle>
    <vehicle id="109" depart="61.75" departSpeed="max">
        <route edges="-23840935 23840887#3 -297047310#2 186623965#15 186623965#17"/>
    </vehicle>
    <vehicle id="110" depart="62.32" departSpeed="max">
        <route edges="60909001 23286179#2 -23283579#1 -23283579#0 28675510#0 28675510#1 23840713#0 23840971"/>
    </vehicle>
    <vehicle id="111" depart="62.89" departSpeed="max">
        <route edges="-42925825#2 155600123#0 297047310#3 297047310#4 23648008#0 25166682#0"/>
    </vehicle>
    <vehicle id="112" depart="63.45" departSpeed="max">
        <route edges="-225249129#1 -225249129#0 -23648008#3 -23648008#1 -23648008#0 -297047307 22959550#0 22959550#1 22959550#3 22959550#4 28675510#1 23840713#0 23840971"/>
    </vehicle>
    <vehicle id="113" depart="64.02" departSpeed="max">
        <route edges="-353069169#0 323416262"/>
    </vehicle>
    <vehicle id="114" depart="64.59" departSpeed="max">
        <route edges="-23840935 23840887#3 -297047310#2 42925825#0"/>
    </vehicle>
    <vehicle id="115" depart="65.15" departSpeed="max">
        <route edges="-22959475#4 -28675510#5 23840713#0 23840713#2 290365598#0 -23840888#0"/>
    </vehicle>
    <vehicle id="116" depart="65.72" departSpeed="max">
        <route edges="132042183 -132042183 22959552#0 22959552#1 22959552#2 8716807#5 8716807#6 -297047308 -28675493 23648008#0 23648008#1 23648008#2 24487264"/>
    </vehicle>
    <vehicle id="117" depart="66.29" departSpeed="max">
        <route edges="-23840972 23840713#2 -23840712#0"/>
    </vehicle>
    <vehicle id="118" depart="66.85" departSpeed="max">
        <route edges="24675285 23656410#0 -309744810#1 -133081987#2 -23686088#1 -23686088#0 155723703#0"/>
    </vehicle>
    <vehicle id="119" depart="67.42" departSpeed="max">
        <route edges="132042183 -23283472#2 23283473 23686088#1 133081987#0 133081987#3 133081985#0 133081985#1 28675510#0 28675510#1 23840713#0 23840972"/>
    </vehicle>
    <vehicle id="120" depart="67.99" departSpeed="max">
        <route edges="-297047309#0 -28675494#1 -8716807#6 -8716807#5 -8716807#4 -8716807#0 28675510#0 28675510#1 23840713#0 23840971"/>
    </vehicle>
    <vehicle id="121" depart="68.55" departSpeed="max">
        <route edges="-42925825#2 42925825#0"/>
    </vehicle>
    <vehicle id="122" depart="69.12" departSpeed="max">
        <route edges="-23840971 23840713#2 23840712#1 23840712#4 23283470#0 23283470#2 23283470#3 23283470#5 24610382"/>
    </vehicle>
    <vehicle id="123" depart="69.69" departSpeed="max">
        <route edges="-23840972 23840713#2 23840712#1 23840712#4 22959550#4 -28675510#0 -133081985#1 -133081985#0 -309744810#1 23283436"/>
    </vehicle>
    <vehicle id="124" depart="70.25" departSpeed="max">
        <route edges="186623965#9 186623965#15 186623965#17"/>
    </vehicle>
    <vehicle id="125" depart="70.82" departSpeed="max">
        <route edges="-24610382 24694889 -132042183 22959552#0 22959552#1 22959552#2 8716807#5 8716807#6 -297047308 -28675493 23648008#0 25166682#0"/>
    </vehicle>
    <vehicle id="126" depart="71.39" departSpeed="max">
        <route edges="-225249129#1 -225249129#0 -23648008#3 -23648008#1 -23648008#0 28675493 297047308 -8716807#6 -8716807#5 -8716807#4 -8716807#0 23283579#0 23283579#1"/>
    </vehicle>
    <vehicle id="127" depart="71.95" departSpeed="max">
        <route edges="60909001 23286179#2 -23283579#1 -23283579#0 -133081985#1 -133081985#0 -309744810#1 -133081987#2 -23686088#1 -23686088#0 4936412"/>
    </vehicle>
    <vehicle id="129" depart="73.09" departSpeed="max">
        <route edges="-24487264 -23648008#3 -23648008#1 -23648008#0 -297047307 -297047310#3 -297047310#2 42925825#0"/>
    </vehicle>
    <vehicle id="130" depart="73.65" departSpeed="max">
        <route edges="23840888#0 23840888#1 23840887#2 23840887#3 297047310#3 297047310#4 23648008#0 23648008#1 23648008#2 225249129#0 323416262"/>
    </vehicle>
    <vehicle id="131" depart="74.22" departSpeed="max">
        <route edges="-25166682#0 -23648008#0 -297047307 22959550#0 22959550#1 22959550#3 -23840712#4 -23840712#3 290365598#0 -23840888#0"/>
    </vehicle>
    <vehicle id="132" depart="74.79" departSpeed="max">
        <route edges="23840712#0 23840712#1 23840712#4 23283470#0 23283470#2 23283470#3 23283470#5 24610382"/>
    </vehicle>
    <vehicle id="133" depart="75.35" departSpeed="max">
        <route edges="132042183 -23283472#2 23283473 -23686088#0 4936412"/>
    </vehicle>
    <vehicle id="134" depart="75.92" departSpeed="max">
        <route edges="160807420 -23686088#1 23686088#1 133081987#0 133081987#3 133081985#0 133081985#1 28675510#0 28675510#1 28675510#4 -22917421#14 -186623965#16 -186623965#14"/>
    </vehicle>
    <vehicle id="135" depart="76.49" departSpeed="max">
        <route edges="23840712#0 290365598#0 23840888#1 23840887#2 23840887#3 -297047310#2 186623965#15 186623965#17"/>
    </vehicle>
    <vehicle id="136" depart="77.05" departSpeed="max">
        <route edges="160807420 -23686088#1 23686088#1 133081987#0 133081987#3 133081985#0 133081985#1 8716807#0 8716807#1 8716807#5 8716807#6 -297047308 -28675493 -297047307 -297047310#3 -297047310#2 42925825#0"/>
    </vehicle>
    <vehicle id="137" depart="77.62" departSpeed="max">
        <route edges="-23283580#1 23286179#1 23286179#2 -23283579#1 -23283579#0 28675510#0 28675510#1 23840713#0 23840713#2 -23840712#0"/>
    </vehicle>
    <vehicle id="138" depart="78.19" departSpeed="max">
        <route edges="-22959475#4 -28675510#5 23840713#0 23840713#2 23840712#1 23840887#0 23840887#2 23840935"/>
    </vehicle>
    <vehicle id="139" depart="78.75" departSpeed="max">
        <route edges="-24487264 -23648008#3 -23648008#1 -23648008#0 -297047307 22959550#0 22959550#1 22959550#3 22959550#4 28675510#1 23840713#0 23840971"/>
    </vehicle>
    <vehicle id="140" depart="79.32" departSpeed="max">
        <route edges="194017408#0 -25168493"/>
    </vehicle>
    <vehicle id="141" depart="79.88" departSpeed="max">
        <route edges="160807420 -23686088#1 -23686088#0 155723703#0"/>
    </vehicle>
    <vehicle id="142" depart="80.45" departSpeed="max">
        <route edges="-353069169#0 -225249129#0 -23648008#3 323450710#0"/>
    </vehicle>
    <vehicle id="143" depart="81.02" departSpeed="max">
        <route edges="23840712#0 290365598#0 23840888#1 23840887#2 23840887#3 -297047310#2 186623965#15 -22917421#4"/>
    </vehicle>
    <vehicle id="144" depart="81.58" departSpeed="max">
        <route edges="-297047309#0 -28675494#1 -297047308 -28675493 -297047307 -297047310#3 -297047310#2 186623965#15 186623965#17"/>
    </vehicle>
    <vehicle id="145" depart="82.15" departSpeed="max">
        <route edges="-186623965#18 22917421#5 28675510#7"/>
    </vehicle>
    <vehicle id="146" depart="82.72" departSpeed="max">
        <route edges="160807420 -23686088#1 -23686088#0 155723703#0"/>
    </vehicle>
    <vehicle id="147" depart="83.28" departSpeed="max">
        <route edges="22917421#3 22917421#5 -28675510#5 23840713#0 23840713#2 23840712#1 23840887#0 23840887#2 23840935"/>
    </vehicle>
    <vehicle id="148" depart="83.85" departSpeed="max">
        <route edges="-297047309#0 -28675494#1 -297047308 -28675493 -297047307 -297047310#3 -297047310#2 -186623965#14"/>
    </vehicle>
    <vehicle id="149" depart="84.42" departSpeed="max">
        <route edges="-22959475#4 -28675510#5 -28675510#3 -28675510#0 8716807#0 8716807#1 8716807#5 8716807#6 -297047308 -28675493 23648008#0 23648008#1 23648008#2 225249129#0 323416262"/>
    </vehicle>
    <vehicle id="150" depart="84.98" departSpeed="max">
        <route edges="24675285 23656410#0 133081985#0 133081985#1 28675510#0 28675510#1 23840713#0 23840713#2 23840712#1 23840887#0 23840887#2 23840935"/>
    </vehicle>
    <vehicle id="151" depart="85.55" departSpeed="max">
        <route edges="23840712#0 23840712#1 23840712#4 22959550#4 28675510#1 23840713#0 23840971"/>
    </vehicle>
    <vehicle id="152" depart="86.12" departSpeed="max">
        <route edges="-23283580#1 23286179#1 23286179#2 -23283579#1 -23283579#0 28675510#0 28675510#1 23840713#0 23840713#2 -23840712#0"/>
    </vehicle>
    <vehicle id="153" depart="86.68" departSpeed="max">
        <route edges="-24610382 24694889 -132042183 22959552#0 22959552#1 22959552#2 8716807#5 8716807#6 -297047308 -28675493 23648008#0 23648008#1 323450710#0"/>
    </vehicle>
    <vehicle id="154" depart="87.25" departSpeed="max">
        <route edges="23647118 8716807#6 -297047308 -28675493 23648008#0 23648008#1 23648008#2 225249129#0 323416262"/>
    </vehicle>
    <vehicle id="156" depart="88.38" departSpeed="max">
        <route edges="-23840972 23840713#2 23840712#1 23840887#0 23840887#2 23840887#3 -297047310#2 186623965#15 -22917421#4"/>
    </vehicle>
    <vehicle id="157" depart="88.95" departSpeed="max">
        <route edges="23647118 8716807#6 -297047308 -28675493 23648008#0 23648008#1 23648008#2 225249129#0 323416262"/>
    </vehicle>
    <vehicle id="158" depart="89.52" departSpeed="max">
        <route edges="-28675510#11 -28675510#5 23840713#0 23840972"/>
    </vehicle>
    <vehicle id="159" depart="90.08" departSpeed="max">
        <route edges="-23840935 23840887#3 -297047310#2 42925825#0"/>
    </vehicle>
    <vehicle id="160" depart="90.65" departSpeed="max">
        <route edges="23840888#0 -290365598#1 23840712#1 23840712#4 22959550#4 -28675510#0 -133081985#1 -133081985#0 -309744810#1 -133081987#2 -23686088#1 -23686088#0 4936412"/>
    </vehicle>
    <vehicle id="161" depart="91.22" departSpeed="max">
        <route edges="23647118 8716807#6 -297047308 -28675493 23648008#0 23648008#1 23648008#2 225249129#0 323416262"/>
    </vehicle>
    <vehicle id="162" depart="91.78" departSpeed="max">
        <route edges="-186623965#18 -186623965#16 155600123#0 297047310#3 297047310#4 23648008#0 25166682#0"/>
    </vehicle>
    <vehicle id="163" depart="92.35" departSpeed="max">
        <route edges="-24610382 24694889 -132042183 22959552#0 22959552#1 22959552#2 8716807#5 8716807#6 -297047308 -28675493 -297047307 -297047310#3 -297047310#2 42925825#0"/>
    </vehicle>
    <vehicle id="164" depart="92.92" departSpeed="max">
        <route edges="23647118 8716807#6 -297047308 -28675493 23648008#0 23648008#1 23648008#2 225249129#0 323416262"/>
    </vehicle>
    <vehicle id="165" depart="93.48" departSpeed="max">
        <route edges="23647118 -8716807#5 -8716807#4 -8716807#0 -133081985#1 -133081985#0 -309744810#1 -133081987#2 -23686088#1 -23686088#0 155723703#0"/>
    </vehicle>
    <vehicle id="166" depart="94.05" departSpeed="max">
        <route edges="23647118 8716807#6 -297047308 -28675493 -297047307 -297047310#3 -297047310#2 186623965#15 -22917421#4"/>
    </vehicle>