<?xml version="1.0" encoding="UTF-8"?>

<!-- generated on 2025-01-15 00:46:15.602913 by randomTrips.py v1_20_0+0002-343658e7c64
<configuration>
    <net-file value="cologne8.net.xml"/>
    <output-trip-file value="trips.trips.xml"/>
    <route-file value="cologne8_v2_train.rou.xml"/>
    <trip-attributes value="departSpeed='max'"/>
    <fringe-factor value="max"/>
    <end value="10800.0"/>
    <insertion-density value="200.0 300.0 400.0 300.0 200.0 300.0 400.0 300.0 200.0"/>
</configuration>
-->

<!-- generated on 2025-01-15 00:46:15 by Eclipse SUMO duarouter Version 1.20.0
<configuration xmlns:xsi="http://www.w3.org/2001/XMLSchema-instance" xsi:noNamespaceSchemaLocation="http://sumo.dlr.de/xsd/duarouterConfiguration.xsd">

    <input>
        <net-file value="cologne8.net.xml"/>
        <route-files value="trips.trips.xml"/>
    </input>

    <output>
        <output-file value="cologne8_v2_train.rou.xml"/>
        <alternatives-output value="NUL"/>
    </output>

    <time>
        <begin value="0"/>
        <end value="10800.0"/>
    </time>

    <report>
        <no-warnings value="true"/>
        <ignore-errors value="true"/>
        <no-step-log value="true"/>
    </report>

</configuration>
-->

<routes xmlns:xsi="http://www.w3.org/2001/XMLSchema-instance" xsi:noNamespaceSchemaLocation="http://sumo.dlr.de/xsd/routes_file.xsd">
    <vehicle id="0" depart="0.00" departSpeed="max">
        <route edges="160807420 -23686088#1 23686088#1 133081987#0 133081987#3 133081985#0 133081985#1 28675510#0 28675510#1 28675510#4 -22917421#14 -186623965#16 -186623965#14"/>
    </vehicle>
    <vehicle id="3" depart="3.40" departSpeed="max">
        <route edges="24675285 23656410#0 133081985#0 133081985#1 28675510#0 28675510#1 28675510#4 -22917421#14 -22917421#4"/>
    </vehicle>
    <vehicle id="4" depart="4.53" departSpeed="max">
        <route edges="-297047309#0 -28675494#1 -297047308 -28675493 -297047307 -297047310#3 -297047310#2 -186623965#14"/>
    </vehicle>
    <vehicle id="5" depart="5.67" departSpeed="max">
        <route edges="-23840971 23840713#2 23840712#1 23840712#4 22959550#4 -28675510#0 23283579#0 23286179#0 23286179#1 23286180"/>
    </vehicle>
    <vehicle id="7" depart="7.93" departSpeed="max">
        <route edges="160807420 -23686088#1 23686088#1 133081987#0 133081987#3 133081985#0 133081985#1 28675510#0 28675510#1 23840713#0 23840713#2 23840712#1 23840887#0 23840887#2 23840935"/>
    </vehicle>
    <vehicle id="8" depart="9.06" departSpeed="max">
        <route edges="-23840971 23840971"/>
    </vehicle>
    <vehicle id="9" depart="10.20" departSpeed="max">
        <route edges="23647118 8716807#6 -297047308 -28675493 -297047307 -297047310#3 -297047310#2 -186623965#14"/>
    </vehicle>
    <vehicle id="10" depart="11.33" departSpeed="max">
        <route edges="23647118 -8716807#5 -8716807#4 23283470#3 23283470#5 24610382"/>
    </vehicle>
    <vehicle id="11" depart="12.46" departSpeed="max">
        <route edges="-25166682#0 -23648008#0 -297047307 22959550#0 22959550#1 22959550#3 -23840712#4 -23840712#3 290365598#0 -23840888#0"/>
    </vehicle>
    <vehicle id="13" depart="14.73" departSpeed="max">
        <route edges="-22959475#4 -22917421#14 -22917421#4"/>
    </vehicle>
    <vehicle id="14" depart="15.86" departSpeed="max">
        <route edges="23840712#0 23840712#1 23840712#4 22959550#4 28675510#1 23840713#0 23840971"/>
    </vehicle>
    <vehicle id="15" depart="17.00" departSpeed="max">
        <route edges="23647118 -8716807#5 -8716807#4 23283470#3 23283470#5 24610382"/>
    </vehicle>
    <vehicle id="16" depart="18.13" departSpeed="max">
        <route edges="-42925825#2 155600123#0 297047310#3 297047310#4 28675493 297047308 -8716807#6 -8716807#5 -8716807#4 -8716807#0 -133081985#1 -133081985#0 -309744810#1 -133081987#2 -23686088#1 -23686088#0 4936412"/>
    </vehicle>
    <vehicle id="17" depart="19.26" departSpeed="max">
        <route edges="-28675510#11 -28675510#5 23840713#0 23840713#2 23840712#1 23840887#0 23840887#2 23840935"/>
    </vehicle>
    <vehicle id="18" depart="20.40" departSpeed="max">
        <route edges="23840712#0 23840712#1 23840712#4 22959550#4 28675510#1 23840713#0 23840972"/>
    </vehicle>
    <vehicle id="19" depart="21.53" departSpeed="max">
        <route edges="23840888#0 -290365598#1 23840712#1 23840712#4 22959550#4 28675510#1 23840713#0 23840971"/>
    </vehicle>
    <vehicle id="20" depart="22.66" departSpeed="max">
        <route edges="194017408#0 -194017408#1"/>
    </vehicle>
    <vehicle id="21" depart="23.80" departSpeed="max">
        <route edges="-23840972 23840713#2 23840712#1 23840887#0 23840887#2 23840887#3 -297047310#2 186623965#15 186623965#17"/>
    </vehicle>
    <vehicle id="22" depart="24.93" departSpeed="max">
        <route edges="-22959475#4 -28675510#5 -28675510#3 -28675510#0 -133081985#1 -133081985#0 -309744810#1 -133081987#2 -23686088#1 -23686088#0 155723703#0"/>
    </vehicle>
    <vehicle id="23" depart="26.06" departSpeed="max">
        <route edges="-22959475#4 -22917421#14 186623965#17"/>
    </vehicle>
    <vehicle id="24" depart="27.19" departSpeed="max">
        <route edges="160807420 -23686088#1 23686088#1 133081987#0 133081987#3 133081985#0 133081985#1 28675510#0 28675510#1 28675510#4 22959475#0"/>
    </vehicle>
    <vehicle id="26" depart="29.46" departSpeed="max">
        <route edges="-24487264 -23648008#3 -23648008#1 -23648008#0 -297047307 -297047310#3 -297047310#2 42925825#0"/>
    </vehicle>
    <vehicle id="27" depart="30.59" departSpeed="max">
        <route edges="160807420 -23686088#1 23686088#1 133081987#0 133081987#3 133081985#0 133081985#1 28675510#0 28675510#1 23840713#0 23840971"/>
    </vehicle>
    <vehicle id="28" depart="31.73" departSpeed="max">
        <route edges="-23840935 23840887#3 297047310#3 297047310#4 28675493 297047308 -8716807#6 -8716807#5 -8716807#4 23283470#3 23283470#5 24610382"/>
    </vehicle>
    <vehicle id="29" depart="32.86" departSpeed="max">
        <route edges="-23840935 23840887#3 297047310#3 22959550#0 22959550#1 22959550#3 22959550#4 28675510#1 28675510#4 22959475#0"/>
    </vehicle>
    <vehicle id="30" depart="33.99" departSpeed="max">
        <route edges="60909001 23286179#2 -23283579#1 -23283579#0 28675510#0 28675510#1 23840713#0 23840972"/>
    </vehicle>
    <vehicle id="31" depart="35.13" departSpeed="max">
        <route edges="-4936412 23686088#0 23686088#1 133081987#0 133081987#3 133081985#0 133081985#1 8716807#0 8716807#1 8716807#5 8716807#6 -297047308 -28675493 23648008#0 23648008#1 23648008#2 24487264"/>
    </vehicle>
    <vehicle id="32" depart="36.26" departSpeed="max">
        <route edges="23840712#0 23840712#1 23840712#4 22959550#4 28675510#1 28675510#4 28675510#7"/>
    </vehicle>
    <vehicle id="33" depart="37.39" departSpeed="max">
        <route edges="-23840972 23840713#2 23840712#1 23840887#0 23840887#2 23840887#3 -297047310#2 -186623965#14"/>
    </vehicle>
    <vehicle id="34" depart="38.53" departSpeed="max">
        <route edges="-24610382 24694889 -23283472#2 23283473 -23686088#0 155723703#0"/>
    </vehicle>
    <vehicle id="35" depart="39.66" departSpeed="max">
        <route edges="-23840971 23840713#2 23840712#1 23840887#0 23840887#2 23840887#3 -297047310#2 42925825#0"/>
    </vehicle>
    <vehicle id="36" depart="40.79" departSpeed="max">
        <route edges="23840888#0 23840888#1 23840887#2 23840887#3 297047310#3 297047310#4 23648008#0 23648008#1 23648008#2 225249129#0 225249129#1"/>
    </vehicle>
    <vehicle id="37" depart="41.93" departSpeed="max">
        <route edges="160807420 -23686088#1 23686088#1 133081987#0 23283436"/>
    </vehicle>
    <vehicle id="38" depart="43.06" departSpeed="max">
        <route edges="24675285 23656410#0 133081985#0 133081985#1 23283579#0 23283579#1"/>
    </vehicle>
    <vehicle id="39" depart="44.19" departSpeed="max">
        <route edges="-24487264 -23648008#3 -23648008#1 -23648008#0 28675493 297047308 -8716807#6 -8716807#5 -8716807#4 -8716807#0 -133081985#1 -133081985#0 -309744810#1 -133081987#2 -23686088#1 -23686088#0 155723703#0"/>
    </vehicle>
    <vehicle id="40" depart="45.32" departSpeed="max">
        <route edges="-4936412 155723703#0"/>
    </vehicle>
    <vehicle id="41" depart="46.46" departSpeed="max">
        <route edges="-4936412 23686088#0 23686088#1 133081987#0 133081987#3 133081985#0 133081985#1 8716807#0 8716807#1 8716807#5 8716807#6 -297047308 -28675493 23648008#0 23648008#1 323450710#0"/>
    </vehicle>
    <vehicle id="43" depart="48.72" departSpeed="max">
        <route edges="60909001 23286180"/>
    </vehicle>
    <vehicle id="45" depart="50.99" departSpeed="max">
        <route edges="-22959475#4 -28675510#5 23840713#0 23840972"/>
    </vehicle>
    <vehicle id="46" depart="52.12" departSpeed="max">
        <route edges="23647118 -8716807#5 -8716807#4 -8716807#0 -133081985#1 -133081985#0 -309744810#1 23283436"/>
    </vehicle>
    <vehicle id="47" depart="53.26" departSpeed="max">
        <route edges="-225249129#1 -225249129#0 -23648008#3 -23648008#1 -23648008#0 -297047307 22959550#0 22959550#1 22959550#3 22959550#4 28675510#1 28675510#4 22959475#0"/>
    </vehicle>
    <vehicle id="48" depart="54.39" departSpeed="max">
        <route edges="60909001 23286180"/>
    </vehicle>
    <vehicle id="49" depart="55.52" departSpeed="max">
        <route edges="60909001 23286179#2 -23283579#1 -23283579#0 8716807#0 8716807#1 8716807#5 8716807#6 -297047308 -28675493 23648008#0 23648008#1 23648008#2 225249129#0 323416262"/>
    </vehicle>
    <vehicle id="50" depart="56.66" departSpeed="max">
        <route edges="-186623965#18 22917421#5 -28675510#5 -28675510#3 -28675510#0 8716807#0 23283470#3 23283470#5 24610382"/>
    </vehicle>
    <vehicle id="51" depart="57.79" departSpeed="max">
        <route edges="186623965#9 155600123#0 297047310#3 297047310#4 28675493 297047308 -8716807#6 -8716807#5 -8716807#4 -8716807#0 23283579#0 23286179#0 23286179#1 23286180"/>
    </vehicle>
    <vehicle id="52" depart="58.92" departSpeed="max">
        <route edges="-24487264 -23648008#3 -23648008#1 -23648008#0 -297047307 22959550#0 22959550#1 22959550#3 22959550#4 28675510#1 23840713#0 23840972"/>
    </vehicle>
    <vehicle id="53" depart="60.06" departSpeed="max">
        <route edges="-23283580#1 23286179#1 23286179#2 -23283579#1 23283579#1"/>
    </vehicle>
    <vehicle id="54" depart="61.19" departSpeed="max">
        <route edges="-323450710#0 -23648008#1 -23648008#0 -297047307 -297047310#3 -297047310#2 42925825#0"/>
    </vehicle>
    <vehicle id="55" depart="62.32" departSpeed="max">
        <route edges="23840888#0 -290365598#1 23840712#1 23840712#4 22959550#4 -28675510#0 -133081985#1 -133081985#0 -309744810#1 -133081987#2 -23686088#1 -23686088#0 155723703#0"/>
    </vehicle>
    <vehicle id="56" depart="63.45" departSpeed="max">
        <route edges="-353069169#0 -225249129#0 -23648008#3 -23648008#1 -23648008#0 -297047307 22959550#0 22959550#1 22959550#3 -23840712#4 -23840712#3 290365598#0 -23840888#0"/>
    </vehicle>
    <vehicle id="57" depart="64.59" departSpeed="max">
        <route edges="24675285 23656410#0 133081985#0 133081985#1 8716807#0 8716807#1 8716807#5 8716807#6 -297047308 -28675493 23648008#0 23648008#1 23648008#2 225249129#0 323416262"/>
    </vehicle>
    <vehicle id="58" depart="65.72" departSpeed="max">
        <route edges="-24610382 24694889 -23283472#2 23283473 23686088#1 133081987#0 133081987#3 133081985#0 133081985#1 28675510#0 28675510#1 23840713#0 23840972"/>
    </vehicle>
    <vehicle id="59" depart="66.85" departSpeed="max">
        <route edges="132042183 -23283472#2 23283473 23686088#1 133081987#0 133081987#3 133081985#0 133081985#1 28675510#0 28675510#1 23840713#0 23840713#2 -23840712#0"/>
    </vehicle>
    <vehicle id="60" depart="67.99" departSpeed="max">
        <route edges="22917421#3 22917421#5 -28675510#5 23840713#0 23840713#2 23840712#1 23840887#0 23840887#2 23840935"/>
    </vehicle>
    <vehicle id="61" depart="69.12" departSpeed="max">
        <route edges="23647118 -8716807#5 -8716807#4 -8716807#0 23283579#0 23286179#0 23286179#1 23286180"/>
    </vehicle>
    <vehicle id="62" depart="70.25" departSpeed="max">
        <route edges="-186623965#18 -186623965#16 155600123#0 297047310#3 297047310#4 23648008#0 23648008#1 23648008#2 225249129#0 225249129#1"/>
    </vehicle>
    <vehicle id="63" depart="71.39" departSpeed="max">
        <route edges="-186623965#18 -186623965#16 42925825#0"/>
    </vehicle>
    <vehicle id="64" depart="72.52" departSpeed="max">
        <route edges="23840888#0 23840888#1 23840887#2 23840887#3 297047310#3 297047310#4 28675493 297047308 28675494#0 297047309#0"/>
    </vehicle>
    <vehicle id="66" depart="74.79" departSpeed="max">
        <route edges="23840888#0 23840888#1 23840887#2 23840887#3 -297047310#2 42925825#0"/>
    </vehicle>
    <vehicle id="67" depart="75.92" departSpeed="max">
        <route edges="-22959475#4 -28675510#5 -28675510#3 -28675510#0 23283579#0 23286179#0 23283580#0"/>
    </vehicle>
    <vehicle id="68" depart="77.05" departSpeed="max">
        <route edges="-225249129#1 -225249129#0 -23648008#3 -23648008#1 25166682#0"/>
    </vehicle>
    <vehicle id="69" depart="78.19" departSpeed="max">
        <route edges="22917421#3 22917421#5 -28675510#5 23840713#0 23840713#2 -23840712#0"/>
    </vehicle>
    <vehicle id="70" depart="79.32" departSpeed="max">
        <route edges="-323450710#0 -23648008#1 -23648008#0 -297047307 22959550#0 22959550#1 22959550#3 -23840712#4 23840887#0 23840887#2 23840935"/>
    </vehicle>
    <vehicle id="71" depart="80.45" departSpeed="max">
        <route edges="-24487264 225249129#0 323416262"/>
    </vehicle>
    <vehicle id="73" depart="82.72" departSpeed="max">
        <route edges="-42925825#2 155600123#0 297047310#3 297047310#4 28675493 297047308 -8716807#6 -8716807#5 -8716807#4 23283470#3 23283470#5 24610382"/>
    </vehicle>
    <vehicle id="74" depart="83.85" departSpeed="max">
        <route edges="-23840971 23840713#2 23840712#1 23840887#0 23840887#2 23840887#3 297047310#3 297047310#4 23648008#0 23648008#1 23648008#2 225249129#0 225249129#1"/>
    </vehicle>
    <vehicle id="75" depart="84.98" departSpeed="max">
        <route edges="60909001 23286179#2 -23283579#1 -23283579#0 28675510#0 28675510#1 23840713#0 23840972"/>
    </vehicle>
    <vehicle id="76" depart="86.12" departSpeed="max">
        <route edges="-297047309#0 -28675494#1 -8716807#6 -8716807#5 -8716807#4 -8716807#0 23283579#0 23286179#0 23286179#1 23286180"/>
    </vehicle>
    <vehicle id="78" depart="88.38" departSpeed="max">
        <route edges="-25166682#0 -23648008#0 -297047307 22959550#0 22959550#1 22959550#3 22959550#4 28675510#1 23840713#0 23840971"/>
    </vehicle>
    <vehicle id="80" depart="90.65" departSpeed="max">
        <route edges="-225249129#1 -225249129#0 -23648008#3 -23648008#1 -23648008#0 -297047307 22959550#0 22959550#1 22959550#3 22959550#4 28675510#1 23840713#0 23840972"/>
    </vehicle>
    <vehicle id="81" depart="91.78" departSpeed="max">
        <route edges="-23840972 23840713#2 23840712#1 23840887#0 23840887#2 23840887#3 297047310#3 297047310#4 23648008#0 23648008#1 323450710#0"/>
    </vehicle>
    <vehicle id="83" depart="94.05" departSpeed="max">
        <route edges="-23840972 23840713#2 23840712#1 23840887#0 23840887#2 23840887#3 297047310#3 297047310#4 23648008#0 23648008#1 23648008#2 24487264"/>
    </vehicle>
    <vehicle id="84" depart="95.18" departSpeed="max">
        <route edges="-23840971 23840713#2 -23840712#0"/>
    </vehicle>
    <vehicle id="86" depart="97.45" departSpeed="max">
        <route edges="-323450710#0 -23648008#1 -23648008#0 -297047307 22959550#0 22959550#1 22959550#3 22959550#4 28675510#1 28675510#4 28675510#7"/>
    </vehicle>
    <vehicle id="87" depart="98.58" departSpeed="max">
        <route edges="23647118 -8716807#5 22959552#4 22959552#5 22959550#3 -23840712#4 -23840712#3 290365598#0 -23840888#0"/>
    </vehicle>
    <vehicle id="88" depart="99.71" departSpeed="max">
        <route edges="-22959475#4 -28675510#5 -28675510#3 -28675510#0 23283579#0 23283579#1"/>
    </vehicle>
    <vehicle id="89" depart="100.85" departSpeed="max">
        <route edges="-297047309#0 -28675494#1 -8716807#6 -8716807#5 -8716807#4 -8716807#0 23283579#0 23286179#0 23283580#0"/>
    </vehicle>
    <vehicle id="91" depart="103.11" departSpeed="max">
        <route edges="60909001 23286179#2 -23283579#1 -23283579#0 28675510#0 28675510#1 28675510#4 -22917421#14 -22917421#4"/>
    </vehicle>
    <vehicle id="92" depart="104.25" departSpeed="max">
        <route edges="-28675510#11 -28675510#5 -28675510#3 -28675510#0 8716807#0 8716807#1 8716807#5 8716807#6 -297047308 -28675493 23648008#0 23648008#1 23648008#2 225249129#0 225249129#1"/>
    </vehicle>
    <vehicle id="93" depart="105.38" departSpeed="max">
        <route edges="23840888#0 -290365598#1 23840712#1 23840712#4 22959550#4 -28675510#0 -133081985#1 -133081985#0 -309744810#1 -133081987#2 -23686088#1 -23686088#0 155723703#0"/>
    </vehicle>
    <vehicle id="94" depart="106.51" departSpeed="max">
        <route edges="-23840971 23840713#2 23840712#1 23840712#4 22959550#4 -28675510#0 23283579#0 23283579#1"/>
    </vehicle>
    <vehicle id="95" depart="107.65" departSpeed="max">
        <route edges="-297047309#0 -28675494#1 -297047308 -28675493 -297047307 -297047310#3 -297047310#2 186623965#15 186623965#17"/>
    </vehicle>
    <vehicle id="96" depart="108.78" departSpeed="max">
        <route edges="-23840972 23840713#2 23840712#1 23840887#0 23840887#2 23840887#3 -297047310#2 42925825#0"/>
    </vehicle>
    <vehicle id="97" depart="109.91" departSpeed="max">
        <route edges="-297047309#0 -28675494#1 -297047308 -28675493 23648008#0 23648008#1 23648008#2 225249129#0 323416262"/>
    </vehicle>
    <vehicle id="99" depart="112.18" departSpeed="max">
        <route edges="60909001 23286179#2 -23283579#1 -23283579#0 8716807#0 8716807#1 8716807#5 8716807#6 28675494#0 297047309#0"/>
    </vehicle>
    <vehicle id="100" depart="113.31" departSpeed="max">
        <route edges="60909001 23286179#2 -23283579#1 -23283579#0 8716807#0 8716807#1 8716807#5 8716807#6 -297047308 -28675493 -297047307 -297047310#3 -297047310#2 42925825#0"/>
    </vehicle>
    <vehicle id="101" depart="114.44" departSpeed="max">
        <route edges="23840712#0 290365598#0 -23840888#0"/>
    </vehicle>
    <vehicle id="104" depart="117.84" departSpeed="max">
        <route edges="-28675510#11 -28675510#5 -28675510#3 -28675510#0 -133081985#1 -133081985#0 -309744810#1 -133081987#2 -23686088#1 -23686088#0 4936412"/>
    </vehicle>
    <vehicle id="105" depart="118.98" departSpeed="max">
        <route edges="-24487264 -23648008#3 -23648008#1 -23648008#0 -297047307 22959550#0 22959550#1 22959550#3 22959550#4 28675510#1 28675510#4 28675510#7"/>
    </vehicle>
    <vehicle id="106" depart="120.11" departSpeed="max">
        <route edges="-323450710#0 -23648008#1 -23648008#0 28675493 297047308 -8716807#6 -8716807#5 -8716807#4 -8716807#0 -133081985#1 -133081985#0 -309744810#1 23283436"/>
    </vehicle>
    <vehicle id="108" depart="122.38" departSpeed="max">
        <route edges="-4936412 23686088#0 23686088#1 133081987#0 133081987#3 133081985#0 133081985#1 8716807#0 23283470#3 23283470#5 24610382"/>
    </vehicle>
    <vehicle id="109" depart="123.51" departSpeed="max">
        <route edges="-23840935 23840887#3 -297047310#2 186623965#15 186623965#17"/>
    </vehicle>
    <vehicle id="110" depart="124.64" departSpeed="max">
        <route edges="60909001 23286179#2 -23283579#1 -23283579#0 28675510#0 28675510#1 23840713#0 23840971"/>
    </vehicle>
    <vehicle id="111" depart="125.78" departSpeed="max">
        <route edges="-42925825#2 155600123#0 297047310#3 297047310#4 23648008#0 25166682#0"/>
    </vehicle>
    <vehicle id="112" depart="126.91" departSpeed="max">
        <route edges="-225249129#1 -225249129#0 -23648008#3 -23648008#1 -23648008#0 -297047307 22959550#0 22959550#1 22959550#3 22959550#4 28675510#1 23840713#0 23840971"/>
    </vehicle>
    <vehicle id="113" depart="128.04" departSpeed="max">
        <route edges="-353069169#0 323416262"/>
    </vehicle>
    <vehicle id="114" depart="129.18" departSpeed="max">
        <route edges="-23840935 23840887#3 -297047310#2 42925825#0"/>
    </vehicle>
    <vehicle id="115" depart="130.31" departSpeed="max">
        <route edges="-22959475#4 -28675510#5 23840713#0 23840713#2 290365598#0 -23840888#0"/>
    </vehicle>
    <vehicle id="116" depart="131.44" departSpeed="max">
        <route edges="132042183 -132042183 22959552#0 22959552#1 22959552#2 8716807#5 8716807#6 -297047308 -28675493 23648008#0 23648008#1 23648008#2 24487264"/>
    </vehicle>
    <vehicle id="117" depart="132.57" departSpeed="max">
        <route edges="-23840972 23840713#2 -23840712#0"/>
    </vehicle>
    <vehicle id="118" depart="133.71" departSpeed="max">
        <route edges="24675285 23656410#0 -309744810#1 -133081987#2 -23686088#1 -23686088#0 155723703#0"/>
    </vehicle>
    <vehicle id="119" depart="134.84" departSpeed="max">
        <route edges="132042183 -23283472#2 23283473 23686088#1 133081987#0 133081987#3 133081985#0 133081985#1 28675510#0 28675510#1 23840713#0 23840972"/>
    </vehicle>
    <vehicle id="120" depart="135.97" departSpeed="max">
        <route edges="-297047309#0 -28675494#1 -8716807#6 -8716807#5 -8716807#4 -8716807#0 28675510#0 28675510#1 23840713#0 23840971"/>
    </vehicle>
    <vehicle id="121" depart="137.11" departSpeed="max">
        <route edges="-42925825#2 42925825#0"/>
    </vehicle>
    <vehicle id="122" depart="138.24" departSpeed="max">
        <route edges="-23840971 23840713#2 23840712#1 23840712#4 23283470#0 23283470#2 23283470#3 23283470#5 24610382"/>
    </vehicle>
    <vehicle id="123" depart="139.37" departSpeed="max">
        <route edges="-23840972 23840713#2 23840712#1 23840712#4 22959550#4 -28675510#0 -133081985#1 -133081985#0 -309744810#1 23283436"/>
    </vehicle>
    <vehicle id="124" depart="140.51" departSpeed="max">
        <route edges="186623965#9 186623965#15 186623965#17"/>
    </vehicle>
    <vehicle id="125" depart="141.64" departSpeed="max">
        <route edges="-24610382 24694889 -132042183 22959552#0 22959552#1 22959552#2 8716807#5 8716807#6 -297047308 -28675493 23648008#0 25166682#0"/>
    </vehicle>
    <vehicle id="126" depart="142.77" departSpeed="max">
        <route edges="-225249129#1 -225249129#0 -23648008#3 -23648008#1 -23648008#0 28675493 297047308 -8716807#6 -8716807#5 -8716807#4 -8716807#0 23283579#0 23283579#1"/>
    </vehicle>
    <vehicle id="127" depart="143.91" departSpeed="max">
        <route edges="60909001 23286179#2 -23283579#1 -23283579#0 -133081985#1 -133081985#0 -309744810#1 -133081987#2 -23686088#1 -23686088#0 4936412"/>
    </vehicle>
    <vehicle id="129" depart="146.17" departSpeed="max">
        <route edges="-24487264 -23648008#3 -23648008#1 -23648008#0 -297047307 -297047310#3 -297047310#2 42925825#0"/>
    </vehicle>
    <vehicle id="130" depart="147.31" departSpeed="max">
        <route edges="23840888#0 23840888#1 23840887#2 23840887#3 297047310#3 297047310#4 23648008#0 23648008#1 23648008#2 225249129#0 323416262"/>
    </vehicle>
    <vehicle id="131" depart="148.44" departSpeed="max">
        <route edges="-25166682#0 -23648008#0 -297047307 22959550#0 22959550#1 22959550#3 -23840712#4 -23840712#3 290365598#0 -23840888#0"/>
    </vehicle>
    <vehicle id="132" depart="149.57" departSpeed="max">
        <route edges="23840712#0 23840712#1 23840712#4 23283470#0 23283470#2 23283470#3 23283470#5 24610382"/>
    </vehicle>
    <vehicle id="133" depart="150.70" departSpeed="max">
        <route edges="132042183 -23283472#2 23283473 -23686088#0 4936412"/>
    </vehicle>
    <vehicle id="134" depart="151.84" departSpeed="max">
        <route edges="160807420 -23686088#1 23686088#1 133081987#0 133081987#3 133081985#0 133081985#1 28675510#0 28675510#1 28675510#4 -22917421#14 -186623965#16 -186623965#14"/>
    </vehicle>
    <vehicle id="135" depart="152.97" departSpeed="max">
        <route edges="23840712#0 290365598#0 23840888#1 23840887#2 23840887#3 -297047310#2 186623965#15 186623965#17"/>
    </vehicle>
    <vehicle id="136" depart="154.10" departSpeed="max">
        <route edges="160807420 -23686088#1 23686088#1 133081987#0 133081987#3 133081985#0 133081985#1 8716807#0 8716807#1 8716807#5 8716807#6 -297047308 -28675493 -297047307 -297047310#3 -297047310#2 42925825#0"/>
    </vehicle>
    <vehicle id="137" depart="155.24" departSpeed="max">
        <route edges="-23283580#1 23286179#1 23286179#2 -23283579#1 -23283579#0 28675510#0 28675510#1 23840713#0 23840713#2 -23840712#0"/>
    </vehicle>
    <vehicle id="138" depart="156.37" departSpeed="max">
        <route edges="-22959475#4 -28675510#5 23840713#0 23840713#2 23840712#1 23840887#0 23840887#2 23840935"/>
    </vehicle>
    <vehicle id="139" depart="157.50" departSpeed="max">
        <route edges="-24487264 -23648008#3 -23648008#1 -23648008#0 -297047307 22959550#0 22959550#1 22959550#3 22959550#4 28675510#1 23840713#0 23840971"/>
    </vehicle>
    <vehicle id="140" depart="158.64" departSpeed="max">
        <route edges="194017408#0 -25168493"/>
    </vehicle>
    <vehicle id="141" depart="159.77" departSpeed="max">
        <route edges="160807420 -23686088#1 -23686088#0 155723703#0"/>
    </vehicle>
    <vehicle id="142" depart="160.90" departSpeed="max">
        <route edges="-353069169#0 -225249129#0 -23648008#3 323450710#0"/>
    </vehicle>
    <vehicle id="143" depart="162.04" departSpeed="max">
        <route edges="23840712#0 290365598#0 23840888#1 23840887#2 23840887#3 -297047310#2 186623965#15 -22917421#4"/>
    </vehicle>
    <vehicle id="144" depart="163.17" departSpeed="max">
        <route edges="-297047309#0 -28675494#1 -297047308 -28675493 -297047307 -297047310#3 -297047310#2 186623965#15 186623965#17"/>
    </vehicle>
    <vehicle id="145" depart="164.30" departSpeed="max">
        <route edges="-186623965#18 22917421#5 28675510#7"/>
    </vehicle>
    <vehicle id="146" depart="165.44" departSpeed="max">
        <route edges="160807420 -23686088#1 -23686088#0 155723703#0"/>
    </vehicle>
    <vehicle id="147" depart="166.57" departSpeed="max">
        <route edges="22917421#3 22917421#5 -28675510#5 23840713#0 23840713#2 23840712#1 23840887#0 23840887#2 23840935"/>
    </vehicle>
    <vehicle id="148" depart="167.70" departSpeed="max">
        <route edges="-297047309#0 -28675494#1 -297047308 -28675493 -297047307 -297047310#3 -297047310#2 -186623965#14"/>
    </vehicle>
    <vehicle id="149" depart="168.83" departSpeed="max">
        <route edges="-22959475#4 -28675510#5 -28675510#3 -28675510#0 8716807#0 8716807#1 8716807#5 8716807#6 -297047308 -28675493 23648008#0 23648008#1 23648008#2 225249129#0 323416262"/>
    </vehicle>
    <vehicle id="150" depart="169.97" departSpeed="max">
        <route edges="24675285 23656410#0 133081985#0 133081985#1 28675510#0 28675510#1 23840713#0 23840713#2 23840712#1 23840887#0 23840887#2 23840935"/>
    </vehicle>
    <vehicle id="151" depart="171.10" departSpeed="max">
        <route edges="23840712#0 23840712#1 23840712#4 22959550#4 28675510#1 23840713#0 23840971"/>
    </vehicle>
    <vehicle id="152" depart="172.23" departSpeed="max">
        <route edges="-23283580#1 23286179#1 23286179#2 -23283579#1 -23283579#0 28675510#0 28675510#1 23840713#0 23840713#2 -23840712#0"/>
    </vehicle>
    <vehicle id="153" depart="173.37" departSpeed="max">
        <route edges="-24610382 24694889 -132042183 22959552#0 22959552#1 22959552#2 8716807#5 8716807#6 -297047308 -28675493 23648008#0 23648008#1 323450710#0"/>
    </vehicle>
    <vehicle id="154" depart="174.50" departSpeed="max">
        <route edges="23647118 8716807#6 -297047308 -28675493 23648008#0 23648008#1 23648008#2 225249129#0 323416262"/>
    </vehicle>
    <vehicle id="156" depart="176.77" departSpeed="max">
        <route edges="-23840972 23840713#2 23840712#1 23840887#0 23840887#2 23840887#3 -297047310#2 186623965#15 -22917421#4"/>
    </vehicle>
    <vehicle id="157" depart="177.90" departSpeed="max">
        <route edges="23647118 8716807#6 -297047308 -28675493 23648008#0 23648008#1 23648008#2 225249129#0 323416262"/>
    </vehicle>
    <vehicle id="158" depart="179.03" departSpeed="max">
        <route edges="-28675510#11 -28675510#5 23840713#0 23840972"/>
    </vehicle>
    <vehicle id="159" depart="180.17" departSpeed="max">
        <route edges="-23840935 23840887#3 -297047310#2 42925825#0"/>
    </vehicle>
    <vehicle id="160" depart="181.30" departSpeed="max">
        <route edges="23840888#0 -290365598#1 23840712#1 23840712#4 22959550#4 -28675510#0 -133081985#1 -133081985#0 -309744810#1 -133081987#2 -23686088#1 -23686088#0 4936412"/>
    </vehicle>
    <vehicle id="161" depart="182.43" departSpeed="max">
        <route edges="23647118 8716807#6 -297047308 -28675493 23648008#0 23648008#1 23648008#2 225249129#0 323416262"/>
    </vehicle>
    <vehicle id="162" depart="183.56" departSpeed="max">
        <route edges="-186623965#18 -186623965#16 155600123#0 297047310#3 297047310#4 23648008#0 25166682#0"/>
    </vehicle>
    <vehicle id="163" depart="184.70" departSpeed="max">
        <route edges="-24610382 24694889 -132042183 22959552#0 22959552#1 22959552#2 8716807#5 8716807#6 -297047308 -28675493 -297047307 -297047310#3 -297047310#2 42925825#0"/>
    </vehicle>
    <vehicle id="164" depart="185.83" departSpeed="max">
        <route edges="23647118 8716807#6 -297047308 -28675493 23648008#0 23648008#1 23648008#2 225249129#0 323416262"/>
    </vehicle>
    <vehicle id="165" depart="186.96" departSpeed="max">
        <route edges="23647118 -8716807#5 -8716807#4 -8716807#0 -133081985#1 -133081985#0 -309744810#1 -133081987#2 -23686088#1 -23686088#0 155723703#0"/>
    </vehicle>
    <vehicle id="166" depart="188.10" departSpeed="max">