<?xml version="1.0" encoding="UTF-8"?>

<!-- generated on 2025-01-15 00:44:19.275824 by randomTrips.py v1_20_0+0002-343658e7c64
<configuration>
    <net-file value="cologne3.net.xml"/>
    <output-trip-file value="trips.trips.xml"/>
    <route-file value="cologne3_v2_medium.rou.xml"/>
    <trip-attributes value="departSpeed='max'"/>
    <fringe-factor value="max"/>
    <insertion-density value="300.0"/>
</configuration>
-->

<!-- generated on 2025-01-15 00:44:19 by Eclipse SUMO duarouter Version 1.20.0
<configuration xmlns:xsi="http://www.w3.org/2001/XMLSchema-instance" xsi:noNamespaceSchemaLocation="http://sumo.dlr.de/xsd/duarouterConfiguration.xsd">

    <input>
        <net-file value="cologne3.net.xml"/>
        <route-files value="trips.trips.xml"/>
    </input>

    <output>
        <output-file value="cologne3_v2_medium.rou.xml"/>
        <alternatives-output value="NUL"/>
    </output>

    <time>
        <begin value="0"/>
        <end value="3600.0"/>
    </time>

    <report>
        <no-warnings value="true"/>
        <ignore-errors value="true"/>
        <no-step-log value="true"/>
    </report>

</configuration>
-->

<routes xmlns:xsi="http://www.w3.org/2001/XMLSchema-instance" xsi:noNamespaceSchemaLocation="http://sumo.dlr.de/xsd/routes_file.xsd">
    <vehicle id="0" depart="0.00" departSpeed="max">
        <route edges="4045329#5 -241660955#9 -241660955#6 -241660955#5 -241660955#3 -200818108#1 -31864804"/>
    </vehicle>
    <vehicle id="1" depart="1.52" departSpeed="max">
        <route edges="-41910185#2 241660955#10 241660955#11 -41910184"/>
    </vehicle>
    <vehicle id="2" depart="3.03" departSpeed="max">
        <route edges="4045330 -241660955#10 -241660955#9 4045332#0"/>
    </vehicle>
    <vehicle id="3" depart="4.55" departSpeed="max">
        <route edges="41910186 241660955#4 241660955#6 241660955#7 -4045329#5"/>
    </vehicle>
    <vehicle id="4" depart="6.07" departSpeed="max">
        <route edges="241660957#0 -200818108#1 -31864804"/>
    </vehicle>
    <vehicle id="5" depart="7.58" departSpeed="max">
        <route edges="-31800061#0 241660955#4 241660955#6 241660955#7 241660955#10 241660955#11 241660955#13 241660955#14 241660955#17"/>
    </vehicle>
    <vehicle id="6" depart="9.10" departSpeed="max">
        <route edges="-130160207#0 -241660955#16 -241660955#13 -241660955#12 -4045330"/>
    </vehicle>
    <vehicle id="7" depart="10.61" departSpeed="max">
        <route edges="4045329#5 241660955#10 241660955#11 241660955#13 241660955#14 241660955#17"/>
    </vehicle>
    <vehicle id="8" depart="12.13" departSpeed="max">
        <route edges="-31800061#0 31800061#0"/>
    </vehicle>
    <vehicle id="9" depart="13.65" departSpeed="max">
        <route edges="41910184 -241660955#12 -241660955#10 -241660955#9 -241660955#6 -241660955#5 -241660955#3 -200818108#1 -31864804"/>
    </vehicle>
    <vehicle id="10" depart="15.16" departSpeed="max">
        <route edges="41910184 -241660955#12 -241660955#10 -241660955#9 4045332#0"/>
    </vehicle>
    <vehicle id="11" depart="16.68" departSpeed="max">
        <route edges="-5229966#3 319261593#15 319261593#16 241660955#0 241660955#4 241660955#6 241660955#7 241660955#10 -4045330"/>
    </vehicle>
    <vehicle id="12" depart="18.20" departSpeed="max">
        <route edges="4999334 -241660955#5 -41910186"/>
    </vehicle>
    <vehicle id="13" depart="19.71" departSpeed="max">
        <route edges="-241660955#17 -241660955#16 -241660955#13 -241660955#12 -241660955#10 -4045329#5"/>
    </vehicle>
    <vehicle id="14" depart="21.23" departSpeed="max">
        <route edges="41910186 31800061#0"/>
    </vehicle>
    <vehicle id="15" depart="22.74" departSpeed="max">
        <route edges="41910184 241660955#13 4145589#0"/>
    </vehicle>
    <vehicle id="16" depart="24.26" departSpeed="max">
        <route edges="31864804 200818108#0 4999331#0"/>
    </vehicle>
    <vehicle id="17" depart="25.78" departSpeed="max">
        <route edges="-5229966#3 319261593#15 319261593#16 241660955#0 241660955#4 241660955#6 241660955#7 241660955#10 241660955#11 241660955#13 241660955#14 241660955#17"/>
    </vehicle>
    <vehicle id="18" depart="27.29" departSpeed="max">
        <route edges="41910184 -241660955#12 -241660955#10 -241660955#9 -241660955#6 -241660955#5 31800061#0"/>
    </vehicle>
    <vehicle id="19" depart="28.81" departSpeed="max">
        <route edges="41910186 31800061#0"/>
    </vehicle>
    <vehicle id="20" depart="30.33" departSpeed="max">
        <route edges="4045330 -241660955#10 -241660955#9 -241660955#6 -241660955#5 -241660955#3 -200818108#1 -31864804"/>
    </vehicle>
    <vehicle id="21" depart="31.84" departSpeed="max">
        <route edges="-31800061#0 -41910186"/>
    </vehicle>
    <vehicle id="22" depart="33.36" departSpeed="max">
        <route edges="-241660955#17 -241660955#16 -241660955#13 -41910184"/>
    </vehicle>
    <vehicle id="23" depart="34.87" departSpeed="max">
        <route edges="-241660955#17 -241660955#16 -241660955#13 -41910184"/>
    </vehicle>
    <vehicle id="24" depart="36.39" departSpeed="max">
        <route edges="4045329#5 -241660955#9 -241660955#6 -4999334"/>
    </vehicle>
    <vehicle id="25" depart="37.91" departSpeed="max">
        <route edges="-5229966#3 319261593#15 319261593#16 241660955#0 241660955#4 241660955#6 241660955#7 241660955#10 -4045330"/>
    </vehicle>
    <vehicle id="26" depart="39.42" departSpeed="max">
        <route edges="-41910185#2 -241660955#9 -241660955#6 -241660955#5 -241660955#3 4999331#0"/>
    </vehicle>
    <vehicle id="27" depart="40.94" departSpeed="max">
        <route edges="4045329#5 -241660955#9 -241660955#6 -241660955#5 31800061#0"/>
    </vehicle>
    <vehicle id="28" depart="42.46" departSpeed="max">
        <route edges="-31800061#0 241660955#4 241660955#6 241660955#7 241660955#10 241660955#11 241660955#13 4145589#0"/>
    </vehicle>
    <vehicle id="29" depart="43.97" departSpeed="max">
        <route edges="-31800061#0 241660955#4 -4999334"/>
    </vehicle>
    <vehicle id="30" depart="45.49" departSpeed="max">
        <route edges="4999334 -241660955#5 31800061#0"/>
    </vehicle>
    <vehicle id="31" depart="47.00" departSpeed="max">
        <route edges="319261593#12 319261593#15 319261593#16 241660955#0 241660955#4 241660955#6 4045332#0"/>
    </vehicle>
    <vehicle id="32" depart="48.52" departSpeed="max">
        <route edges="41910184 241660955#13 4145589#0"/>
    </vehicle>
    <vehicle id="33" depart="50.04" departSpeed="max">
        <route edges="-31800061#0 -241660955#3 -200818108#1 -31864804"/>
    </vehicle>
    <vehicle id="34" depart="51.55" departSpeed="max">
        <route edges="-5229966#3 319261593#15 319261593#16 241660955#0 241660955#4 241660955#6 241660955#7 241660955#10 241660955#11 -41910184"/>
    </vehicle>
    <vehicle id="35" depart="53.07" departSpeed="max">
        <route edges="-31800061#0 -241660955#3 4999331#0"/>
    </vehicle>
    <vehicle id="36" depart="54.59" departSpeed="max">
        <route edges="41910186 -41910186"/>
    </vehicle>
    <vehicle id="37" depart="56.10" departSpeed="max">
        <route edges="4045329#5 -241660955#9 -241660955#6 -4999334"/>
    </vehicle>
    <vehicle id="38" depart="57.62" departSpeed="max">
        <route edges="41910186 241660955#4 241660955#6 241660955#7 241660955#10 241660955#11 241660955#13 241660955#14 130160207#0"/>
    </vehicle>
    <vehicle id="39" depart="59.13" departSpeed="max">
        <route edges="-41910185#2 241660955#10 241660955#11 -41910184"/>
    </vehicle>
    <vehicle id="40" depart="60.65" departSpeed="max">
        <route edges="319261593#12 319261593#15 319261593#16 241660955#0 241660955#4 241660955#6 241660955#7 241660955#10 241660955#11 -41910184"/>
    </vehicle>
    <vehicle id="41" depart="62.17" departSpeed="max">
        <route edges="319261593#12 319261593#15 319261593#16 241660955#0 241660955#4 241660955#6 241660955#7 41910185#0"/>
    </vehicle>
    <vehicle id="42" depart="63.68" departSpeed="max">
        <route edges="241660957#0 241660955#0 241660955#4 241660955#6 241660955#7 241660955#10 241660955#11 -41910184"/>
    </vehicle>
    <vehicle id="43" depart="65.20" departSpeed="max">
        <route edges="4999334 241660955#6 241660955#7 241660955#10 241660955#11 241660955#13 241660955#14 241660955#17"/>
    </vehicle>
    <vehicle id="44" depart="66.72" departSpeed="max">
        <route edges="-241660955#17 -241660955#16 -241660955#13 -241660955#12 -241660955#10 -241660955#9 -241660955#6 -241660955#5 -241660955#3 -200818108#1 -31864804"/>
    </vehicle>
    <vehicle id="45" depart="68.23" departSpeed="max">
        <route edges="-241660955#17 -241660955#16 -241660955#13 -241660955#12 -241660955#10 -241660955#9 -241660955#6 -241660955#5 31800061#0"/>
    </vehicle>
    <vehicle id="46" depart="69.75" departSpeed="max">
        <route edges="41910184 -241660955#12 -241660955#10 -241660955#9 -241660955#6 -4999334"/>
    </vehicle>
    <vehicle id="47" depart="71.26" departSpeed="max">
        <route edges="-130160207#0 -241660955#16 -241660955#13 -241660955#12 -241660955#10 -241660955#9 -241660955#6 -4999334"/>
    </vehicle>
    <vehicle id="48" depart="72.78" departSpeed="max">
        <route edges="4999334 241660955#6 241660955#7 241660955#10 241660955#11 241660955#13 241660955#14 241660955#17"/>
    </vehicle>
    <vehicle id="49" depart="74.30" departSpeed="max">
        <route edges="4999334 241660955#6 241660955#7 41910185#0"/>
    </vehicle>
    <vehicle id="50" depart="75.81" departSpeed="max">
        <route edges="-130160207#0 -241660955#16 4145589#0"/>
    </vehicle>
    <vehicle id="51" depart="77.33" departSpeed="max">
        <route edges="4045329#5 241660955#10 241660955#11 241660955#13 241660955#14 241660955#17"/>
    </vehicle>
    <vehicle id="52" depart="78.85" departSpeed="max">
        <route edges="-41910185#2 -241660955#9 -241660955#6 -241660955#5 31800061#0"/>
    </vehicle>
    <vehicle id="53" depart="80.36" departSpeed="max">
        <route edges="-241660955#17 130160207#0"/>
    </vehicle>
    <vehicle id="54" depart="81.88" departSpeed="max">
        <route edges="241660957#0 4999331#0"/>
    </vehicle>
    <vehicle id="55" depart="83.39" departSpeed="max">
        <route edges="41910186 241660955#4 241660955#6 241660955#7 241660955#10 241660955#11 -41910184"/>
    </vehicle>
    <vehicle id="56" depart="84.91" departSpeed="max">
        <route edges="31864804 200818108#0 241660955#0 241660955#4 241660955#6 241660955#7 241660955#10 -4045330"/>
    </vehicle>
    <vehicle id="57" depart="86.43" departSpeed="max">
        <route edges="41910186 241660955#4 241660955#6 241660955#7 41910185#0"/>
    </vehicle>
    <vehicle id="58" depart="87.94" departSpeed="max">
        <route edges="-41910185#2 -241660955#9 -241660955#6 -241660955#5 31800061#0"/>
    </vehicle>
    <vehicle id="59" depart="89.46" departSpeed="max">
        <route edges="319261593#12 319261593#15 319261593#16 241660955#0 241660955#4 241660955#6 241660955#7 241660955#10 -4045330"/>
    </vehicle>
    <vehicle id="60" depart="90.98" departSpeed="max">
        <route edges="4045330 241660955#11 241660955#13 241660955#14 241660955#17"/>
    </vehicle>
    <vehicle id="61" depart="92.49" departSpeed="max">
        <route edges="41910184 241660955#13 241660955#14 241660955#17"/>
    </vehicle>
    <vehicle id="62" depart="94.01" departSpeed="max">
        <route edges="-130160207#0 -241660955#16 -241660955#13 -241660955#12 -241660955#10 -241660955#9 -241660955#6 -241660955#5 -41910186"/>
    </vehicle>
    <vehicle id="63" depart="95.52" departSpeed="max">
        <route edges="-130160207#0 -241660955#16 -241660955#13 -241660955#12 -241660955#10 -241660955#9 -241660955#6 -241660955#5 -241660955#3 4999331#0"/>
    </vehicle>
    <vehicle id="64" depart="97.04" departSpeed="max">
        <route edges="41910186 -241660955#3 4145590#0"/>
    </vehicle>
    <vehicle id="65" depart="98.56" departSpeed="max">
        <route edges="-41910185#2 -241660955#9 -241660955#6 -241660955#5 -241660955#3 -200818108#1 -31864804"/>
    </vehicle>
    <vehicle id="66" depart="100.07" departSpeed="max">
        <route edges="41910186 -241660955#3 4999331#0"/>
    </vehicle>
    <vehicle id="67" depart="101.59" departSpeed="max">
        <route edges="-241660955#17 130160207#0"/>
    </vehicle>
    <vehicle id="68" depart="103.11" departSpeed="max">
        <route edges="-130160207#0 -241660955#16 4145589#0"/>
    </vehicle>
    <vehicle id="69" depart="104.62" departSpeed="max">
        <route edges="4045330 -241660955#10 -4045329#5"/>
    </vehicle>
    <vehicle id="70" depart="106.14" departSpeed="max">
        <route edges="31864804 200818108#0 241660955#0 241660955#4 241660955#6 241660955#7 241660955#10 241660955#11 241660955#13 241660955#14 241660955#17"/>
    </vehicle>
    <vehicle id="71" depart="107.65" departSpeed="max">
        <route edges="-41910185#2 41910185#0"/>
    </vehicle>
    <vehicle id="72" depart="109.17" departSpeed="max">
        <route edges="241660957#0 241660955#0 241660955#4 241660955#6 241660955#7 241660955#10 -4045330"/>
    </vehicle>
    <vehicle id="73" depart="110.69" departSpeed="max">
        <route edges="319261593#12 319261593#15 319261593#16 241660955#0 241660955#4 241660955#6 241660955#7 241660955#10 241660955#11 241660955#13 4145589#0"/>
    </vehicle>
    <vehicle id="74" depart="112.20" departSpeed="max">
        <route edges="-31800061#0 -41910186"/>
    </vehicle>
    <vehicle id="75" depart="113.72" departSpeed="max">
        <route edges="4999334 241660955#6 4045332#0"/>
    </vehicle>
    <vehicle id="76" depart="115.24" departSpeed="max">
        <route edges="241660957#0 241660955#0 241660955#4 241660955#6 241660955#7 241660955#10 241660955#11 241660955#13 241660955#14 241660955#17"/>
    </vehicle>
    <vehicle id="77" depart="116.75" departSpeed="max">
        <route edges="-241660955#17 -241660955#16 -241660955#13 -41910184"/>
    </vehicle>
    <vehicle id="78" depart="118.27" departSpeed="max">
        <route edges="-5229966#3 319261593#15 319261593#16 241660955#0 31800061#0"/>
    </vehicle>
    <vehicle id="79" depart="119.78" departSpeed="max">
        <route edges="-31800061#0 241660955#4 241660955#6 241660955#7 241660955#10 241660955#11 -41910184"/>
    </vehicle>
    <vehicle id="80" depart="121.30" departSpeed="max">
        <route edges="-130160207#0 -241660955#16 -241660955#13 -241660955#12 -241660955#10 -241660955#9 -241660955#6 -241660955#5 31800061#0"/>
    </vehicle>
    <vehicle id="81" depart="122.82" departSpeed="max">
        <route edges="-31800061#0 241660955#4 241660955#6 241660955#7 41910185#0"/>
    </vehicle>
    <vehicle id="82" depart="124.33" departSpeed="max">
        <route edges="41910186 -241660955#3 -200818108#1 -31864804"/>
    </vehicle>
    <vehicle id="83" depart="125.85" departSpeed="max">
        <route edges="-41910185#2 -241660955#9 4045332#0"/>
    </vehicle>
    <vehicle id="84" depart="127.37" departSpeed="max">
        <route edges="-31800061#0 241660955#4 241660955#6 241660955#7 -4045329#5"/>
    </vehicle>
    <vehicle id="85" depart="128.88" departSpeed="max">
        <route edges="4999334 241660955#6 241660955#7 241660955#10 241660955#11 241660955#13 241660955#14 241660955#17"/>
    </vehicle>
    <vehicle id="86" depart="130.40" departSpeed="max">
        <route edges="31864804 200818108#0 241660955#0 241660955#4 241660955#6 241660955#7 241660955#10 241660955#11 241660955#13 4145589#0"/>
    </vehicle>
    <vehicle id="87" depart="131.92" departSpeed="max">
        <route edges="41910184 -241660955#12 -4045330"/>
    </vehicle>
    <vehicle id="88" depart="133.43" departSpeed="max">
        <route edges="-241660955#17 130160207#0"/>
    </vehicle>
    <vehicle id="89" depart="134.95" departSpeed="max">
        <route edges="241660957#0 241660955#0 241660955#4 241660955#6 241660955#7 241660955#10 241660955#11 241660955#13 241660955#14 130160207#0"/>
    </vehicle>
    <vehicle id="90" depart="136.46" departSpeed="max">
        <route edges="4045330 -241660955#10 -241660955#9 4045332#0"/>
    </vehicle>
    <vehicle id="91" depart="137.98" departSpeed="max">
        <route edges="4999334 241660955#6 241660955#7 -4045329#5"/>
    </vehicle>
    <vehicle id="92" depart="139.50" departSpeed="max">
        <route edges="241660957#0 241660955#0 -41910186"/>
    </vehicle>
    <vehicle id="93" depart="141.01" departSpeed="max">
        <route edges="41910186 241660955#4 241660955#6 241660955#7 241660955#10 241660955#11 -41910184"/>
    </vehicle>
    <vehicle id="94" depart="142.53" departSpeed="max">
        <route edges="-31800061#0 241660955#4 241660955#6 241660955#7 241660955#10 241660955#11 241660955#13 241660955#14 130160207#0"/>
    </vehicle>
    <vehicle id="95" depart="144.05" departSpeed="max">
        <route edges="241660957#0 241660955#0 241660955#4 241660955#6 241660955#7 241660955#10 241660955#11 -41910184"/>
    </vehicle>
    <vehicle id="96" depart="145.56" departSpeed="max">
        <route edges="-41910185#2 41910185#0"/>
    </vehicle>
    <vehicle id="97" depart="147.08" departSpeed="max">
        <route edges="241660957#0 241660955#0 241660955#4 241660955#6 241660955#7 41910185#0"/>
    </vehicle>
    <vehicle id="98" depart="148.59" departSpeed="max">
        <route edges="319261593#12 319261593#15 319261593#16 -200818108#1 -31864804"/>
    </vehicle>
    <vehicle id="99" depart="150.11" departSpeed="max">
        <route edges="4999334 -241660955#5 -241660955#3 4145590#0"/>
    </vehicle>
    <vehicle id="100" depart="151.63" departSpeed="max">
        <route edges="4999334 241660955#6 241660955#7 41910185#0"/>
    </vehicle>
    <vehicle id="101" depart="153.14" departSpeed="max">
        <route edges="41910186 241660955#4 241660955#6 241660955#7 241660955#10 -4045330"/>
    </vehicle>
    <vehicle id="102" depart="154.66" departSpeed="max">
        <route edges="31864804 200818108#0 241660955#0 241660955#4 241660955#6 241660955#7 241660955#10 -4045330"/>
    </vehicle>
    <vehicle id="103" depart="156.18" departSpeed="max">
        <route edges="241660957#0 -200818108#1 -31864804"/>
    </vehicle>
    <vehicle id="104" depart="157.69" departSpeed="max">
        <route edges="-5229966#3 319261593#15 319261593#16 4999331#0"/>
    </vehicle>
    <vehicle id="105" depart="159.21" departSpeed="max">
        <route edges="-41910185#2 241660955#10 241660955#11 241660955#13 4145589#0"/>
    </vehicle>
    <vehicle id="106" depart="160.72" departSpeed="max">
        <route edges="241660957#0 241660955#0 241660955#4 -4999334"/>
    </vehicle>
    <vehicle id="107" depart="162.24" departSpeed="max">
        <route edges="4999334 -241660955#5 -241660955#3 4999331#0"/>
    </vehicle>
    <vehicle id="108" depart="163.76" departSpeed="max">
        <route edges="319261593#12 319261593#15 319261593#16 241660955#0 241660955#4 241660955#6 241660955#7 241660955#10 241660955#11 241660955#13 4145589#0"/>
    </vehicle>
    <vehicle id="109" depart="165.27" departSpeed="max">
        <route edges="-31800061#0 -41910186"/>
    </vehicle>
    <vehicle id="110" depart="166.79" departSpeed="max">
        <route edges="4999334 -241660955#5 31800061#0"/>
    </vehicle>
    <vehicle id="111" depart="168.31" departSpeed="max">
        <route edges="319261593#12 319261593#15 319261593#16 241660955#0 241660955#4 241660955#6 241660955#7 241660955#10 241660955#11 241660955#13 4145589#0"/>
    </vehicle>
    <vehicle id="112" depart="169.82" departSpeed="max">
        <route edges="-130160207#0 -241660955#16 -241660955#13 -241660955#12 -241660955#10 -241660955#9 -241660955#6 -241660955#5 31800061#0"/>
    </vehicle>
    <vehicle id="113" depart="171.34" departSpeed="max">
        <route edges="31864804 200818108#0 4145590#0"/>
    </vehicle>
    <vehicle id="114" depart="172.85" departSpeed="max">
        <route edges="-31800061#0 -241660955#3 4999331#0"/>
    </vehicle>
    <vehicle id="115" depart="174.37" departSpeed="max">
        <route edges="-241660955#17 -241660955#16 -241660955#13 -241660955#12 -4045330"/>
    </vehicle>
    <vehicle id="116" depart="175.89" departSpeed="max">
        <route edges="319261593#12 319261593#15 319261593#16 241660955#0 241660955#4 241660955#6 4045332#0"/>
    </vehicle>
    <vehicle id="117" depart="177.40" departSpeed="max">
        <route edges="-41910185#2 -4045329#5"/>
    </vehicle>
    <vehicle id="118" depart="178.92" departSpeed="max">
        <route edges="41910186 241660955#4 241660955#6 241660955#7 241660955#10 241660955#11 -41910184"/>
    </vehicle>
    <vehicle id="119" depart="180.44" departSpeed="max">
        <route edges="319261593#12 319261593#15 319261593#16 241660955#0 31800061#0"/>
    </vehicle>
    <vehicle id="120" depart="181.95" departSpeed="max">
        <route edges="241660957#0 241660955#0 31800061#0"/>
    </vehicle>
    <vehicle id="121" depart="183.47" departSpeed="max">
        <route edges="31864804 200818108#0 4999331#0"/>
    </vehicle>
    <vehicle id="122" depart="184.98" departSpeed="max">
        <route edges="-31800061#0 241660955#4 241660955#6 241660955#7 241660955#10 241660955#11 241660955#13 4145589#0"/>
    </vehicle>
    <vehicle id="123" depart="186.50" departSpeed="max">
        <route edges="-41910185#2 -241660955#9 -241660955#6 -4999334"/>
    </vehicle>
    <vehicle id="124" depart="188.02" departSpeed="max">
        <route edges="4045329#5 -241660955#9 -241660955#6 -241660955#5 -41910186"/>
    </vehicle>
    <vehicle id="125" depart="189.53" departSpeed="max">
        <route edges="-5229966#3 319261593#15 319261593#16 241660955#0 241660955#4 241660955#6 241660955#7 241660955#10 241660955#11 241660955#13 4145589#0"/>
    </vehicle>
    <vehicle id="126" depart="191.05" departSpeed="max">
        <route edges="-130160207#0 130160207#0"/>
    </vehicle>
    <vehicle id="127" depart="192.57" departSpeed="max">
        <route edges="4999334 -241660955#5 -241660955#3 4999331#0"/>
    </vehicle>
    <vehicle id="128" depart="194.08" departSpeed="max">
        <route edges="-130160207#0 -241660955#16 -241660955#13 -241660955#12 -4045330"/>
    </vehicle>
    <vehicle id="129" depart="195.60" departSpeed="max">
        <route edges="-41910185#2 -241660955#9 -241660955#6 -241660955#5 -241660955#3 4999331#0"/>
    </vehicle>
    <vehicle id="130" depart="197.11" departSpeed="max">
        <route edges="41910186 241660955#4 241660955#6 241660955#7 41910185#0"/>
    </vehicle>
    <vehicle id="131" depart="198.63" departSpeed="max">
        <route edges="-5229966#3 319261593#15 319261593#16 241660955#0 241660955#4 241660955#6 241660955#7 241660955#10 -4045330"/>
    </vehicle>
    <vehicle id="132" depart="200.15" departSpeed="max">
        <route edges="41910184 -241660955#12 -241660955#10 -241660955#9 4045332#0"/>
    </vehicle>
    <vehicle id="133" depart="201.66" departSpeed="max">
        <route edges="319261593#12 319261593#15 319261593#16 4999331#0"/>
    </vehicle>
    <vehicle id="134" depart="203.18" departSpeed="max">
        <route edges="4045329#5 -241660955#9 -241660955#6 -241660955#5 -241660955#3 -200818108#1 -31864804"/>
    </vehicle>
    <vehicle id="135" depart="204.70" departSpeed="max">
        <route edges="41910184 -241660955#12 -241660955#10 -241660955#9 -241660955#6 -241660955#5 -41910186"/>
    </vehicle>
    <vehicle id="136" depart="206.21" departSpeed="max">
        <route edges="4045329#5 -241660955#9 -241660955#6 -241660955#5 -241660955#3 4999331#0"/>
    </vehicle>
    <vehicle id="137" depart="207.73" departSpeed="max">
        <route edges="-241660955#17 -241660955#16 -241660955#13 -241660955#12 -241660955#10 -4045329#5"/>
    </vehicle>
    <vehicle id="138" depart="209.24" departSpeed="max">
        <route edges="-241660955#17 241660955#17"/>
    </vehicle>
    <vehicle id="139" depart="210.76" departSpeed="max">
        <route edges="-41910185#2 -241660955#9 -241660955#6 -241660955#5 31800061#0"/>
    </vehicle>
    <vehicle id="140" depart="212.28" departSpeed="max">
        <route edges="4045330 -4045330"/>
    </vehicle>
    <vehicle id="141" depart="213.79" departSpeed="max">
        <route edges="4045329#5 241660955#10 241660955#11 -41910184"/>
    </vehicle>
    <vehicle id="142" depart="215.31" departSpeed="max">
        <route edges="31864804 200818108#0 241660955#0 241660955#4 241660955#6 241660955#7 41910185#0"/>
    </vehicle>
    <vehicle id="143" depart="216.83" departSpeed="max">
        <route edges="41910184 -241660955#12 -241660955#10 -4045329#5"/>
    </vehicle>
    <vehicle id="144" depart="218.34" departSpeed="max">
        <route edges="241660957#0 241660955#0 241660955#4 241660955#6 241660955#7 241660955#10 241660955#11 -41910184"/>
    </vehicle>
    <vehicle id="145" depart="219.86" departSpeed="max">
        <route edges="-130160207#0 -241660955#16 4145589#0"/>
    </vehicle>
    <vehicle id="146" depart="221.37" departSpeed="max">
        <route edges="4045329#5 241660955#10 241660955#11 -41910184"/>
    </vehicle>
    <vehicle id="147" depart="222.89" departSpeed="max">
        <route edges="4045330 241660955#11 241660955#13 241660955#14 241660955#17"/>
    </vehicle>
    <vehicle id="148" depart="224.41" departSpeed="max">
        <route edges="241660957#0 -200818108#1 -31864804"/>
    </vehicle>
    <vehicle id="149" depart="225.92" departSpeed="max">
        <route edges="-130160207#0 -241660955#16 -241660955#13 -241660955#12 -241660955#10 41910185#0"/>
    </vehicle>
    <vehicle id="150" depart="227.44" departSpeed="max">
        <route edges="41910186 241660955#4 241660955#6 241660955#7 241660955#10 241660955#11 241660955#13 241660955#14 241660955#17"/>
    </vehicle>
    <vehicle id="151" depart="228.96" departSpeed="max">
        <route edges="41910184 -241660955#12 -241660955#10 -241660955#9 -241660955#6 -241660955#5 31800061#0"/>
    </vehicle>
    <vehicle id="152" depart="230.47" departSpeed="max">
        <route edges="-241660955#17 -241660955#16 -241660955#13 -241660955#12 -241660955#10 -4045329#5"/>
    </vehicle>
    <vehicle id="153" depart="231.99" departSpeed="max">
        <route edges="-5229966#3 319261593#15 319261593#16 241660955#0 241660955#4 241660955#6 241660955#7 41910185#0"/>
    </vehicle>
    <vehicle id="154" depart="233.50" departSpeed="max">
        <route edges="41910184 -241660955#12 -241660955#10 41910185#0"/>
    </vehicle>
    <vehicle id="155" depart="235.02" departSpeed="max">
        <route edges="41910186 241660955#4 241660955#6 241660955#7 241660955#10 -4045330"/>
    </vehicle>
    <vehicle id="156" depart="236.54" departSpeed="max">
        <route edges="-41910185#2 -4045329#5"/>
    </vehicle>
    <vehicle id="157" depart="238.05" departSpeed="max">
        <route edges="41910184 -241660955#12 -241660955#10 41910185#0"/>
    </vehicle>
    <vehicle id="158" depart="239.57" departSpeed="max">
        <route edges="241660957#0 241660955#0 31800061#0"/>
    </vehicle>
    <vehicle id="159" depart="241.09" departSpeed="max">
        <route edges="-31800061#0 -241660955#3 4999331#0"/>
    </vehicle>
    <vehicle id="160" depart="242.60" departSpeed="max">
        <route edges="41910186 -241660955#3 4999331#0"/>
    </vehicle>
    <vehicle id="161" depart="244.12" departSpeed="max">
        <route edges="41910184 -241660955#12 -241660955#10 41910185#0"/>
    </vehicle>
    <vehicle id="162" depart="245.64" departSpeed="max">
        <route edges="-130160207#0 -241660955#16 4145589#0"/>
    </vehicle>
    <vehicle id="163" depart="247.15" departSpeed="max">
        <route edges="-5229966#3 319261593#15 319261593#16 4999331#0"/>
    </vehicle>
    <vehicle id="164" depart="248.67" departSpeed="max">
        <route edges="41910184 -241660955#12 -241660955#10 41910185#0"/>
    </vehicle>
    <vehicle id="165" depart="250.18" departSpeed="max">
        <route edges="41910184 -41910184"/>
    </vehicle>
    <vehicle id="166" depart="251.70" departSpeed="max">
        <route edges="41910184 -241660955#12 -241660955#10 -4045329#5"/>
    </vehicle>
    <vehicle id="167" depart="253.22" departSpeed="max">
        <route edges="41910186 241660955#4 241660955#6 241660955#7 41910185#0"/>
    </vehicle>
    <vehicle id="168" depart="254.73" departSpeed="max">
        <route edges="-31800061#0 -241660955#3 4145590#0"/>
    </vehicle>
    <vehicle id="169" depart="256.25" departSpeed="max">
        <route edges="241660957#0 241660955#0 -41910186"/>
    </vehicle>
    <vehicle id="170" depart="257.77" departSpeed="max">
        <route edges="41910184 -41910184"/>
    </vehicle>
    <vehicle id="171" depart="259.28" departSpeed="max">
        <route edges="-130160207#0 -241660955#16 -241660955#13 -241660955#12 -4045330"/>
    </vehicle>
    <vehicle id="172" depart="260.80" departSpeed="max">
        <route edges="-5229966#3 319261593#15 319261593#16 241660955#0 241660955#4 241660955#6 241660955#7 41910185#0"/>
    </vehicle>
    <vehicle id="173" depart="262.31" departSpeed="max">
        <route edges="4999334 241660955#6 241660955#7 241660955#10 241660955#11 -41910184"/>
    </vehicle>
    <vehicle id="174" depart="263.83" departSpeed="max">
        <route edges="4045329#5 -241660955#9 -241660955#6 -4999334"/>
    </vehicle>
    <vehicle id="175" depart="265.35" departSpeed="max">
        <route edges="4999334 241660955#6 241660955#7 241660955#10 241660955#11 241660955#13 241660955#14 241660955#17"/>
    </vehicle>
    <vehicle id="176" depart="266.86" departSpeed="max">
        <route edges="4999334 241660955#6 241660955#7 -4045329#5"/>
    </vehicle>
    <vehicle id="177" depart="268.38" departSpeed="max">
        <route edges="4999334 241660955#6 241660955#7 241660955#10 -4045330"/>
    </vehicle>
    <vehicle id="178" depart="269.90" departSpeed="max">
        <route edges="4999334 241660955#6 241660955#7 241660955#10 241660955#11 -41910184"/>
    </vehicle>
    <vehicle id="179" depart="271.41" departSpeed="max">