<?xml version="1.0" encoding="UTF-8"?>

<!-- generated on 2025-01-15 00:44:49.578400 by randomTrips.py v1_20_0+0002-343658e7c64
<configuration>
    <net-file value="cologne3.net.xml"/>
    <output-trip-file value="trips.trips.xml"/>
    <route-file value="cologne3_v2_high.rou.xml"/>
    <trip-attributes value="departSpeed='max'"/>
    <fringe-factor value="max"/>
    <insertion-density value="400.0"/>
</configuration>
-->

<!-- generated on 2025-01-15 00:44:49 by Eclipse SUMO duarouter Version 1.20.0
<configuration xmlns:xsi="http://www.w3.org/2001/XMLSchema-instance" xsi:noNamespaceSchemaLocation="http://sumo.dlr.de/xsd/duarouterConfiguration.xsd">

    <input>
        <net-file value="cologne3.net.xml"/>
        <route-files value="trips.trips.xml"/>
    </input>

    <output>
        <output-file value="cologne3_v2_high.rou.xml"/>
        <alternatives-output value="NUL"/>
    </output>

    <time>
        <begin value="0"/>
        <end value="3600.0"/>
    </time>

    <report>
        <no-warnings value="true"/>
        <ignore-errors value="true"/>
        <no-step-log value="true"/>
    </report>

</configuration>
-->

<routes xmlns:xsi="http://www.w3.org/2001/XMLSchema-instance" xsi:noNamespaceSchemaLocation="http://sumo.dlr.de/xsd/routes_file.xsd">
    <vehicle id="0" depart="0.00" departSpeed="max">
        <route edges="4045329#5 -241660955#9 -241660955#6 -241660955#5 -241660955#3 -200818108#1 -31864804"/>
    </vehicle>
    <vehicle id="1" depart="1.14" departSpeed="max">
        <route edges="-41910185#2 241660955#10 241660955#11 -41910184"/>
    </vehicle>
    <vehicle id="2" depart="2.27" departSpeed="max">
        <route edges="4045330 -241660955#10 -241660955#9 4045332#0"/>
    </vehicle>
    <vehicle id="3" depart="3.41" departSpeed="max">
        <route edges="41910186 241660955#4 241660955#6 241660955#7 -4045329#5"/>
    </vehicle>
    <vehicle id="4" depart="4.55" departSpeed="max">
        <route edges="241660957#0 -200818108#1 -31864804"/>
    </vehicle>
    <vehicle id="5" depart="5.69" departSpeed="max">
        <route edges="-31800061#0 241660955#4 241660955#6 241660955#7 241660955#10 241660955#11 241660955#13 241660955#14 241660955#17"/>
    </vehicle>
    <vehicle id="6" depart="6.82" departSpeed="max">
        <route edges="-130160207#0 -241660955#16 -241660955#13 -241660955#12 -4045330"/>
    </vehicle>
    <vehicle id="7" depart="7.96" departSpeed="max">
        <route edges="4045329#5 241660955#10 241660955#11 241660955#13 241660955#14 241660955#17"/>
    </vehicle>
    <vehicle id="8" depart="9.10" departSpeed="max">
        <route edges="-31800061#0 31800061#0"/>
    </vehicle>
    <vehicle id="9" depart="10.23" departSpeed="max">
        <route edges="41910184 -241660955#12 -241660955#10 -241660955#9 -241660955#6 -241660955#5 -241660955#3 -200818108#1 -31864804"/>
    </vehicle>
    <vehicle id="10" depart="11.37" departSpeed="max">
        <route edges="41910184 -241660955#12 -241660955#10 -241660955#9 4045332#0"/>
    </vehicle>
    <vehicle id="11" depart="12.51" departSpeed="max">
        <route edges="-5229966#3 319261593#15 319261593#16 241660955#0 241660955#4 241660955#6 241660955#7 241660955#10 -4045330"/>
    </vehicle>
    <vehicle id="12" depart="13.65" departSpeed="max">
        <route edges="4999334 -241660955#5 -41910186"/>
    </vehicle>
    <vehicle id="13" depart="14.78" departSpeed="max">
        <route edges="-241660955#17 -241660955#16 -241660955#13 -241660955#12 -241660955#10 -4045329#5"/>
    </vehicle>
    <vehicle id="14" depart="15.92" departSpeed="max">
        <route edges="41910186 31800061#0"/>
    </vehicle>
    <vehicle id="15" depart="17.06" departSpeed="max">
        <route edges="41910184 241660955#13 4145589#0"/>
    </vehicle>
    <vehicle id="16" depart="18.20" departSpeed="max">
        <route edges="31864804 200818108#0 4999331#0"/>
    </vehicle>
    <vehicle id="17" depart="19.33" departSpeed="max">
        <route edges="-5229966#3 319261593#15 319261593#16 241660955#0 241660955#4 241660955#6 241660955#7 241660955#10 241660955#11 241660955#13 241660955#14 241660955#17"/>
    </vehicle>
    <vehicle id="18" depart="20.47" departSpeed="max">
        <route edges="41910184 -241660955#12 -241660955#10 -241660955#9 -241660955#6 -241660955#5 31800061#0"/>
    </vehicle>
    <vehicle id="19" depart="21.61" departSpeed="max">
        <route edges="41910186 31800061#0"/>
    </vehicle>
    <vehicle id="20" depart="22.74" departSpeed="max">
        <route edges="4045330 -241660955#10 -241660955#9 -241660955#6 -241660955#5 -241660955#3 -200818108#1 -31864804"/>
    </vehicle>
    <vehicle id="21" depart="23.88" departSpeed="max">
        <route edges="-31800061#0 -41910186"/>
    </vehicle>
    <vehicle id="22" depart="25.02" departSpeed="max">
        <route edges="-241660955#17 -241660955#16 -241660955#13 -41910184"/>
    </vehicle>
    <vehicle id="23" depart="26.16" departSpeed="max">
        <route edges="-241660955#17 -241660955#16 -241660955#13 -41910184"/>
    </vehicle>
    <vehicle id="24" depart="27.29" departSpeed="max">
        <route edges="4045329#5 -241660955#9 -241660955#6 -4999334"/>
    </vehicle>
    <vehicle id="25" depart="28.43" departSpeed="max">
        <route edges="-5229966#3 319261593#15 319261593#16 241660955#0 241660955#4 241660955#6 241660955#7 241660955#10 -4045330"/>
    </vehicle>
    <vehicle id="26" depart="29.57" departSpeed="max">
        <route edges="-41910185#2 -241660955#9 -241660955#6 -241660955#5 -241660955#3 4999331#0"/>
    </vehicle>
    <vehicle id="27" depart="30.70" departSpeed="max">
        <route edges="4045329#5 -241660955#9 -241660955#6 -241660955#5 31800061#0"/>
    </vehicle>
    <vehicle id="28" depart="31.84" departSpeed="max">
        <route edges="-31800061#0 241660955#4 241660955#6 241660955#7 241660955#10 241660955#11 241660955#13 4145589#0"/>
    </vehicle>
    <vehicle id="29" depart="32.98" departSpeed="max">
        <route edges="-31800061#0 241660955#4 -4999334"/>
    </vehicle>
    <vehicle id="30" depart="34.12" departSpeed="max">
        <route edges="4999334 -241660955#5 31800061#0"/>
    </vehicle>
    <vehicle id="31" depart="35.25" departSpeed="max">
        <route edges="319261593#12 319261593#15 319261593#16 241660955#0 241660955#4 241660955#6 4045332#0"/>
    </vehicle>
    <vehicle id="32" depart="36.39" departSpeed="max">
        <route edges="41910184 241660955#13 4145589#0"/>
    </vehicle>
    <vehicle id="33" depart="37.53" departSpeed="max">
        <route edges="-31800061#0 -241660955#3 -200818108#1 -31864804"/>
    </vehicle>
    <vehicle id="34" depart="38.66" departSpeed="max">
        <route edges="-5229966#3 319261593#15 319261593#16 241660955#0 241660955#4 241660955#6 241660955#7 241660955#10 241660955#11 -41910184"/>
    </vehicle>
    <vehicle id="35" depart="39.80" departSpeed="max">
        <route edges="-31800061#0 -241660955#3 4999331#0"/>
    </vehicle>
    <vehicle id="36" depart="40.94" departSpeed="max">
        <route edges="41910186 -41910186"/>
    </vehicle>
    <vehicle id="37" depart="42.08" departSpeed="max">
        <route edges="4045329#5 -241660955#9 -241660955#6 -4999334"/>
    </vehicle>
    <vehicle id="38" depart="43.21" departSpeed="max">
        <route edges="41910186 241660955#4 241660955#6 241660955#7 241660955#10 241660955#11 241660955#13 241660955#14 130160207#0"/>
    </vehicle>
    <vehicle id="39" depart="44.35" departSpeed="max">
        <route edges="-41910185#2 241660955#10 241660955#11 -41910184"/>
    </vehicle>
    <vehicle id="40" depart="45.49" departSpeed="max">
        <route edges="319261593#12 319261593#15 319261593#16 241660955#0 241660955#4 241660955#6 241660955#7 241660955#10 241660955#11 -41910184"/>
    </vehicle>
    <vehicle id="41" depart="46.63" departSpeed="max">
        <route edges="319261593#12 319261593#15 319261593#16 241660955#0 241660955#4 241660955#6 241660955#7 41910185#0"/>
    </vehicle>
    <vehicle id="42" depart="47.76" departSpeed="max">
        <route edges="241660957#0 241660955#0 241660955#4 241660955#6 241660955#7 241660955#10 241660955#11 -41910184"/>
    </vehicle>
    <vehicle id="43" depart="48.90" departSpeed="max">
        <route edges="4999334 241660955#6 241660955#7 241660955#10 241660955#11 241660955#13 241660955#14 241660955#17"/>
    </vehicle>
    <vehicle id="44" depart="50.04" departSpeed="max">
        <route edges="-241660955#17 -241660955#16 -241660955#13 -241660955#12 -241660955#10 -241660955#9 -241660955#6 -241660955#5 -241660955#3 -200818108#1 -31864804"/>
    </vehicle>
    <vehicle id="45" depart="51.17" departSpeed="max">
        <route edges="-241660955#17 -241660955#16 -241660955#13 -241660955#12 -241660955#10 -241660955#9 -241660955#6 -241660955#5 31800061#0"/>
    </vehicle>
    <vehicle id="46" depart="52.31" departSpeed="max">
        <route edges="41910184 -241660955#12 -241660955#10 -241660955#9 -241660955#6 -4999334"/>
    </vehicle>
    <vehicle id="47" depart="53.45" departSpeed="max">
        <route edges="-130160207#0 -241660955#16 -241660955#13 -241660955#12 -241660955#10 -241660955#9 -241660955#6 -4999334"/>
    </vehicle>
    <vehicle id="48" depart="54.59" departSpeed="max">
        <route edges="4999334 241660955#6 241660955#7 241660955#10 241660955#11 241660955#13 241660955#14 241660955#17"/>
    </vehicle>
    <vehicle id="49" depart="55.72" departSpeed="max">
        <route edges="4999334 241660955#6 241660955#7 41910185#0"/>
    </vehicle>
    <vehicle id="50" depart="56.86" departSpeed="max">
        <route edges="-130160207#0 -241660955#16 4145589#0"/>
    </vehicle>
    <vehicle id="51" depart="58.00" departSpeed="max">
        <route edges="4045329#5 241660955#10 241660955#11 241660955#13 241660955#14 241660955#17"/>
    </vehicle>
    <vehicle id="52" depart="59.13" departSpeed="max">
        <route edges="-41910185#2 -241660955#9 -241660955#6 -241660955#5 31800061#0"/>
    </vehicle>
    <vehicle id="53" depart="60.27" departSpeed="max">
        <route edges="-241660955#17 130160207#0"/>
    </vehicle>
    <vehicle id="54" depart="61.41" departSpeed="max">
        <route edges="241660957#0 4999331#0"/>
    </vehicle>
    <vehicle id="55" depart="62.55" departSpeed="max">
        <route edges="41910186 241660955#4 241660955#6 241660955#7 241660955#10 241660955#11 -41910184"/>
    </vehicle>
    <vehicle id="56" depart="63.68" departSpeed="max">
        <route edges="31864804 200818108#0 241660955#0 241660955#4 241660955#6 241660955#7 241660955#10 -4045330"/>
    </vehicle>
    <vehicle id="57" depart="64.82" departSpeed="max">
        <route edges="41910186 241660955#4 241660955#6 241660955#7 41910185#0"/>
    </vehicle>
    <vehicle id="58" depart="65.96" departSpeed="max">
        <route edges="-41910185#2 -241660955#9 -241660955#6 -241660955#5 31800061#0"/>
    </vehicle>
    <vehicle id="59" depart="67.09" departSpeed="max">
        <route edges="319261593#12 319261593#15 319261593#16 241660955#0 241660955#4 241660955#6 241660955#7 241660955#10 -4045330"/>
    </vehicle>
    <vehicle id="60" depart="68.23" departSpeed="max">
        <route edges="4045330 241660955#11 241660955#13 241660955#14 241660955#17"/>
    </vehicle>
    <vehicle id="61" depart="69.37" departSpeed="max">
        <route edges="41910184 241660955#13 241660955#14 241660955#17"/>
    </vehicle>
    <vehicle id="62" depart="70.51" departSpeed="max">
        <route edges="-130160207#0 -241660955#16 -241660955#13 -241660955#12 -241660955#10 -241660955#9 -241660955#6 -241660955#5 -41910186"/>
    </vehicle>
    <vehicle id="63" depart="71.64" departSpeed="max">
        <route edges="-130160207#0 -241660955#16 -241660955#13 -241660955#12 -241660955#10 -241660955#9 -241660955#6 -241660955#5 -241660955#3 4999331#0"/>
    </vehicle>
    <vehicle id="64" depart="72.78" departSpeed="max">
        <route edges="41910186 -241660955#3 4145590#0"/>
    </vehicle>
    <vehicle id="65" depart="73.92" departSpeed="max">
        <route edges="-41910185#2 -241660955#9 -241660955#6 -241660955#5 -241660955#3 -200818108#1 -31864804"/>
    </vehicle>
    <vehicle id="66" depart="75.06" departSpeed="max">
        <route edges="41910186 -241660955#3 4999331#0"/>
    </vehicle>
    <vehicle id="67" depart="76.19" departSpeed="max">
        <route edges="-241660955#17 130160207#0"/>
    </vehicle>
    <vehicle id="68" depart="77.33" departSpeed="max">
        <route edges="-130160207#0 -241660955#16 4145589#0"/>
    </vehicle>
    <vehicle id="69" depart="78.47" departSpeed="max">
        <route edges="4045330 -241660955#10 -4045329#5"/>
    </vehicle>
    <vehicle id="70" depart="79.60" departSpeed="max">
        <route edges="31864804 200818108#0 241660955#0 241660955#4 241660955#6 241660955#7 241660955#10 241660955#11 241660955#13 241660955#14 241660955#17"/>
    </vehicle>
    <vehicle id="71" depart="80.74" departSpeed="max">
        <route edges="-41910185#2 41910185#0"/>
    </vehicle>
    <vehicle id="72" depart="81.88" departSpeed="max">
        <route edges="241660957#0 241660955#0 241660955#4 241660955#6 241660955#7 241660955#10 -4045330"/>
    </vehicle>
    <vehicle id="73" depart="83.02" departSpeed="max">
        <route edges="319261593#12 319261593#15 319261593#16 241660955#0 241660955#4 241660955#6 241660955#7 241660955#10 241660955#11 241660955#13 4145589#0"/>
    </vehicle>
    <vehicle id="74" depart="84.15" departSpeed="max">
        <route edges="-31800061#0 -41910186"/>
    </vehicle>
    <vehicle id="75" depart="85.29" departSpeed="max">
        <route edges="4999334 241660955#6 4045332#0"/>
    </vehicle>
    <vehicle id="76" depart="86.43" departSpeed="max">
        <route edges="241660957#0 241660955#0 241660955#4 241660955#6 241660955#7 241660955#10 241660955#11 241660955#13 241660955#14 241660955#17"/>
    </vehicle>
    <vehicle id="77" depart="87.56" departSpeed="max">
        <route edges="-241660955#17 -241660955#16 -241660955#13 -41910184"/>
    </vehicle>
    <vehicle id="78" depart="88.70" departSpeed="max">
        <route edges="-5229966#3 319261593#15 319261593#16 241660955#0 31800061#0"/>
    </vehicle>
    <vehicle id="79" depart="89.84" departSpeed="max">
        <route edges="-31800061#0 241660955#4 241660955#6 241660955#7 241660955#10 241660955#11 -41910184"/>
    </vehicle>
    <vehicle id="80" depart="90.98" departSpeed="max">
        <route edges="-130160207#0 -241660955#16 -241660955#13 -241660955#12 -241660955#10 -241660955#9 -241660955#6 -241660955#5 31800061#0"/>
    </vehicle>
    <vehicle id="81" depart="92.11" departSpeed="max">
        <route edges="-31800061#0 241660955#4 241660955#6 241660955#7 41910185#0"/>
    </vehicle>
    <vehicle id="82" depart="93.25" departSpeed="max">
        <route edges="41910186 -241660955#3 -200818108#1 -31864804"/>
    </vehicle>
    <vehicle id="83" depart="94.39" departSpeed="max">
        <route edges="-41910185#2 -241660955#9 4045332#0"/>
    </vehicle>
    <vehicle id="84" depart="95.52" departSpeed="max">
        <route edges="-31800061#0 241660955#4 241660955#6 241660955#7 -4045329#5"/>
    </vehicle>
    <vehicle id="85" depart="96.66" departSpeed="max">
        <route edges="4999334 241660955#6 241660955#7 241660955#10 241660955#11 241660955#13 241660955#14 241660955#17"/>
    </vehicle>
    <vehicle id="86" depart="97.80" departSpeed="max">
        <route edges="31864804 200818108#0 241660955#0 241660955#4 241660955#6 241660955#7 241660955#10 241660955#11 241660955#13 4145589#0"/>
    </vehicle>
    <vehicle id="87" depart="98.94" departSpeed="max">
        <route edges="41910184 -241660955#12 -4045330"/>
    </vehicle>
    <vehicle id="88" depart="100.07" departSpeed="max">
        <route edges="-241660955#17 130160207#0"/>
    </vehicle>
    <vehicle id="89" depart="101.21" departSpeed="max">
        <route edges="241660957#0 241660955#0 241660955#4 241660955#6 241660955#7 241660955#10 241660955#11 241660955#13 241660955#14 130160207#0"/>
    </vehicle>
    <vehicle id="90" depart="102.35" departSpeed="max">
        <route edges="4045330 -241660955#10 -241660955#9 4045332#0"/>
    </vehicle>
    <vehicle id="91" depart="103.49" departSpeed="max">
        <route edges="4999334 241660955#6 241660955#7 -4045329#5"/>
    </vehicle>
    <vehicle id="92" depart="104.62" departSpeed="max">
        <route edges="241660957#0 241660955#0 -41910186"/>
    </vehicle>
    <vehicle id="93" depart="105.76" departSpeed="max">
        <route edges="41910186 241660955#4 241660955#6 241660955#7 241660955#10 241660955#11 -41910184"/>
    </vehicle>
    <vehicle id="94" depart="106.90" departSpeed="max">
        <route edges="-31800061#0 241660955#4 241660955#6 241660955#7 241660955#10 241660955#11 241660955#13 241660955#14 130160207#0"/>
    </vehicle>
    <vehicle id="95" depart="108.03" departSpeed="max">
        <route edges="241660957#0 241660955#0 241660955#4 241660955#6 241660955#7 241660955#10 241660955#11 -41910184"/>
    </vehicle>
    <vehicle id="96" depart="109.17" departSpeed="max">
        <route edges="-41910185#2 41910185#0"/>
    </vehicle>
    <vehicle id="97" depart="110.31" departSpeed="max">
        <route edges="241660957#0 241660955#0 241660955#4 241660955#6 241660955#7 41910185#0"/>
    </vehicle>
    <vehicle id="98" depart="111.45" departSpeed="max">
        <route edges="319261593#12 319261593#15 319261593#16 -200818108#1 -31864804"/>
    </vehicle>
    <vehicle id="99" depart="112.58" departSpeed="max">
        <route edges="4999334 -241660955#5 -241660955#3 4145590#0"/>
    </vehicle>
    <vehicle id="100" depart="113.72" departSpeed="max">
        <route edges="4999334 241660955#6 241660955#7 41910185#0"/>
    </vehicle>
    <vehicle id="101" depart="114.86" departSpeed="max">
        <route edges="41910186 241660955#4 241660955#6 241660955#7 241660955#10 -4045330"/>
    </vehicle>
    <vehicle id="102" depart="115.99" departSpeed="max">
        <route edges="31864804 200818108#0 241660955#0 241660955#4 241660955#6 241660955#7 241660955#10 -4045330"/>
    </vehicle>
    <vehicle id="103" depart="117.13" departSpeed="max">
        <route edges="241660957#0 -200818108#1 -31864804"/>
    </vehicle>
    <vehicle id="104" depart="118.27" departSpeed="max">
        <route edges="-5229966#3 319261593#15 319261593#16 4999331#0"/>
    </vehicle>
    <vehicle id="105" depart="119.41" departSpeed="max">
        <route edges="-41910185#2 241660955#10 241660955#11 241660955#13 4145589#0"/>
    </vehicle>
    <vehicle id="106" depart="120.54" departSpeed="max">
        <route edges="241660957#0 241660955#0 241660955#4 -4999334"/>
    </vehicle>
    <vehicle id="107" depart="121.68" departSpeed="max">
        <route edges="4999334 -241660955#5 -241660955#3 4999331#0"/>
    </vehicle>
    <vehicle id="108" depart="122.82" departSpeed="max">
        <route edges="319261593#12 319261593#15 319261593#16 241660955#0 241660955#4 241660955#6 241660955#7 241660955#10 241660955#11 241660955#13 4145589#0"/>
    </vehicle>
    <vehicle id="109" depart="123.95" departSpeed="max">
        <route edges="-31800061#0 -41910186"/>
    </vehicle>
    <vehicle id="110" depart="125.09" departSpeed="max">
        <route edges="4999334 -241660955#5 31800061#0"/>
    </vehicle>
    <vehicle id="111" depart="126.23" departSpeed="max">
        <route edges="319261593#12 319261593#15 319261593#16 241660955#0 241660955#4 241660955#6 241660955#7 241660955#10 241660955#11 241660955#13 4145589#0"/>
    </vehicle>
    <vehicle id="112" depart="127.37" departSpeed="max">
        <route edges="-130160207#0 -241660955#16 -241660955#13 -241660955#12 -241660955#10 -241660955#9 -241660955#6 -241660955#5 31800061#0"/>
    </vehicle>
    <vehicle id="113" depart="128.50" departSpeed="max">
        <route edges="31864804 200818108#0 4145590#0"/>
    </vehicle>
    <vehicle id="114" depart="129.64" departSpeed="max">
        <route edges="-31800061#0 -241660955#3 4999331#0"/>
    </vehicle>
    <vehicle id="115" depart="130.78" departSpeed="max">
        <route edges="-241660955#17 -241660955#16 -241660955#13 -241660955#12 -4045330"/>
    </vehicle>
    <vehicle id="116" depart="131.92" departSpeed="max">
        <route edges="319261593#12 319261593#15 319261593#16 241660955#0 241660955#4 241660955#6 4045332#0"/>
    </vehicle>
    <vehicle id="117" depart="133.05" departSpeed="max">
        <route edges="-41910185#2 -4045329#5"/>
    </vehicle>
    <vehicle id="118" depart="134.19" departSpeed="max">
        <route edges="41910186 241660955#4 241660955#6 241660955#7 241660955#10 241660955#11 -41910184"/>
    </vehicle>
    <vehicle id="119" depart="135.33" departSpeed="max">
        <route edges="319261593#12 319261593#15 319261593#16 241660955#0 31800061#0"/>
    </vehicle>
    <vehicle id="120" depart="136.46" departSpeed="max">
        <route edges="241660957#0 241660955#0 31800061#0"/>
    </vehicle>
    <vehicle id="121" depart="137.60" departSpeed="max">
        <route edges="31864804 200818108#0 4999331#0"/>
    </vehicle>
    <vehicle id="122" depart="138.74" departSpeed="max">
        <route edges="-31800061#0 241660955#4 241660955#6 241660955#7 241660955#10 241660955#11 241660955#13 4145589#0"/>
    </vehicle>
    <vehicle id="123" depart="139.88" departSpeed="max">
        <route edges="-41910185#2 -241660955#9 -241660955#6 -4999334"/>
    </vehicle>
    <vehicle id="124" depart="141.01" departSpeed="max">
        <route edges="4045329#5 -241660955#9 -241660955#6 -241660955#5 -41910186"/>
    </vehicle>
    <vehicle id="125" depart="142.15" departSpeed="max">
        <route edges="-5229966#3 319261593#15 319261593#16 241660955#0 241660955#4 241660955#6 241660955#7 241660955#10 241660955#11 241660955#13 4145589#0"/>
    </vehicle>
    <vehicle id="126" depart="143.29" departSpeed="max">
        <route edges="-130160207#0 130160207#0"/>
    </vehicle>
    <vehicle id="127" depart="144.42" departSpeed="max">
        <route edges="4999334 -241660955#5 -241660955#3 4999331#0"/>
    </vehicle>
    <vehicle id="128" depart="145.56" departSpeed="max">
        <route edges="-130160207#0 -241660955#16 -241660955#13 -241660955#12 -4045330"/>
    </vehicle>
    <vehicle id="129" depart="146.70" departSpeed="max">
        <route edges="-41910185#2 -241660955#9 -241660955#6 -241660955#5 -241660955#3 4999331#0"/>
    </vehicle>
    <vehicle id="130" depart="147.84" departSpeed="max">
        <route edges="41910186 241660955#4 241660955#6 241660955#7 41910185#0"/>
    </vehicle>
    <vehicle id="131" depart="148.97" departSpeed="max">
        <route edges="-5229966#3 319261593#15 319261593#16 241660955#0 241660955#4 241660955#6 241660955#7 241660955#10 -4045330"/>
    </vehicle>
    <vehicle id="132" depart="150.11" departSpeed="max">
        <route edges="41910184 -241660955#12 -241660955#10 -241660955#9 4045332#0"/>
    </vehicle>
    <vehicle id="133" depart="151.25" departSpeed="max">
        <route edges="319261593#12 319261593#15 319261593#16 4999331#0"/>
    </vehicle>
    <vehicle id="134" depart="152.38" departSpeed="max">
        <route edges="4045329#5 -241660955#9 -241660955#6 -241660955#5 -241660955#3 -200818108#1 -31864804"/>
    </vehicle>
    <vehicle id="135" depart="153.52" departSpeed="max">
        <route edges="41910184 -241660955#12 -241660955#10 -241660955#9 -241660955#6 -241660955#5 -41910186"/>
    </vehicle>
    <vehicle id="136" depart="154.66" departSpeed="max">
        <route edges="4045329#5 -241660955#9 -241660955#6 -241660955#5 -241660955#3 4999331#0"/>
    </vehicle>
    <vehicle id="137" depart="155.80" departSpeed="max">
        <route edges="-241660955#17 -241660955#16 -241660955#13 -241660955#12 -241660955#10 -4045329#5"/>
    </vehicle>
    <vehicle id="138" depart="156.93" departSpeed="max">
        <route edges="-241660955#17 241660955#17"/>
    </vehicle>
    <vehicle id="139" depart="158.07" departSpeed="max">
        <route edges="-41910185#2 -241660955#9 -241660955#6 -241660955#5 31800061#0"/>
    </vehicle>
    <vehicle id="140" depart="159.21" departSpeed="max">
        <route edges="4045330 -4045330"/>
    </vehicle>
    <vehicle id="141" depart="160.35" departSpeed="max">
        <route edges="4045329#5 241660955#10 241660955#11 -41910184"/>
    </vehicle>
    <vehicle id="142" depart="161.48" departSpeed="max">
        <route edges="31864804 200818108#0 241660955#0 241660955#4 241660955#6 241660955#7 41910185#0"/>
    </vehicle>
    <vehicle id="143" depart="162.62" departSpeed="max">
        <route edges="41910184 -241660955#12 -241660955#10 -4045329#5"/>
    </vehicle>
    <vehicle id="144" depart="163.76" departSpeed="max">
        <route edges="241660957#0 241660955#0 241660955#4 241660955#6 241660955#7 241660955#10 241660955#11 -41910184"/>
    </vehicle>
    <vehicle id="145" depart="164.89" departSpeed="max">
        <route edges="-130160207#0 -241660955#16 4145589#0"/>
    </vehicle>
    <vehicle id="146" depart="166.03" departSpeed="max">
        <route edges="4045329#5 241660955#10 241660955#11 -41910184"/>
    </vehicle>
    <vehicle id="147" depart="167.17" departSpeed="max">
        <route edges="4045330 241660955#11 241660955#13 241660955#14 241660955#17"/>
    </vehicle>
    <vehicle id="148" depart="168.31" departSpeed="max">
        <route edges="241660957#0 -200818108#1 -31864804"/>
    </vehicle>
    <vehicle id="149" depart="169.44" departSpeed="max">
        <route edges="-130160207#0 -241660955#16 -241660955#13 -241660955#12 -241660955#10 41910185#0"/>
    </vehicle>
    <vehicle id="150" depart="170.58" departSpeed="max">
        <route edges="41910186 241660955#4 241660955#6 241660955#7 241660955#10 241660955#11 241660955#13 241660955#14 241660955#17"/>
    </vehicle>
    <vehicle id="151" depart="171.72" departSpeed="max">
        <route edges="41910184 -241660955#12 -241660955#10 -241660955#9 -241660955#6 -241660955#5 31800061#0"/>
    </vehicle>
    <vehicle id="152" depart="172.85" departSpeed="max">
        <route edges="-241660955#17 -241660955#16 -241660955#13 -241660955#12 -241660955#10 -4045329#5"/>
    </vehicle>
    <vehicle id="153" depart="173.99" departSpeed="max">
        <route edges="-5229966#3 319261593#15 319261593#16 241660955#0 241660955#4 241660955#6 241660955#7 41910185#0"/>
    </vehicle>
    <vehicle id="154" depart="175.13" departSpeed="max">
        <route edges="41910184 -241660955#12 -241660955#10 41910185#0"/>
    </vehicle>
    <vehicle id="155" depart="176.27" departSpeed="max">
        <route edges="41910186 241660955#4 241660955#6 241660955#7 241660955#10 -4045330"/>
    </vehicle>
    <vehicle id="156" depart="177.40" departSpeed="max">
        <route edges="-41910185#2 -4045329#5"/>
    </vehicle>
    <vehicle id="157" depart="178.54" departSpeed="max">
        <route edges="41910184 -241660955#12 -241660955#10 41910185#0"/>
    </vehicle>
    <vehicle id="158" depart="179.68" departSpeed="max">
        <route edges="241660957#0 241660955#0 31800061#0"/>
    </vehicle>
    <vehicle id="159" depart="180.81" departSpeed="max">
        <route edges="-31800061#0 -241660955#3 4999331#0"/>
    </vehicle>
    <vehicle id="160" depart="181.95" departSpeed="max">
        <route edges="41910186 -241660955#3 4999331#0"/>
    </vehicle>
    <vehicle id="161" depart="183.09" departSpeed="max">
        <route edges="41910184 -241660955#12 -241660955#10 41910185#0"/>
    </vehicle>
    <vehicle id="162" depart="184.23" departSpeed="max">
        <route edges="-130160207#0 -241660955#16 4145589#0"/>
    </vehicle>
    <vehicle id="163" depart="185.36" departSpeed="max">
        <route edges="-5229966#3 319261593#15 319261593#16 4999331#0"/>
    </vehicle>
    <vehicle id="164" depart="186.50" departSpeed="max">
        <route edges="41910184 -241660955#12 -241660955#10 41910185#0"/>
    </vehicle>
    <vehicle id="165" depart="187.64" departSpeed="max">
        <route edges="41910184 -41910184"/>
    </vehicle>
    <vehicle id="166" depart="188.78" departSpeed="max">
        <route edges="41910184 -241660955#12 -241660955#10 -4045329#5"/>
    </vehicle>
    <vehicle id="167" depart="189.91" departSpeed="max">
        <route edges="41910186 241660955#4 241660955#6 241660955#7 41910185#0"/>
    </vehicle>
    <vehicle id="168" depart="191.05" departSpeed="max">
        <route edges="-31800061#0 -241660955#3 4145590#0"/>
    </vehicle>
    <vehicle id="169" depart="192.19" departSpeed="max">
        <route edges="241660957#0 241660955#0 -41910186"/>
    </vehicle>
    <vehicle id="170" depart="193.32" departSpeed="max">
        <route edges="41910184 -41910184"/>
    </vehicle>
    <vehicle id="171" depart="194.46" departSpeed="max">
        <route edges="-130160207#0 -241660955#16 -241660955#13 -241660955#12 -4045330"/>
    </vehicle>
    <vehicle id="172" depart="195.60" departSpeed="max">
        <route edges="-5229966#3 319261593#15 319261593#16 241660955#0 241660955#4 241660955#6 241660955#7 41910185#0"/>
    </vehicle>
    <vehicle id="173" depart="196.74" departSpeed="max">
        <route edges="4999334 241660955#6 241660955#7 241660955#10 241660955#11 -41910184"/>
    </vehicle>
    <vehicle id="174" depart="197.87" departSpeed="max">
        <route edges="4045329#5 -241660955#9 -241660955#6 -4999334"/>
    </vehicle>
    <vehicle id="175" depart="199.01" departSpeed="max">
        <route edges="4999334 241660955#6 241660955#7 241660955#10 241660955#11 241660955#13 241660955#14 241660955#17"/>
    </vehicle>
    <vehicle id="176" depart="200.15" departSpeed="max">
        <route edges="4999334 241660955#6 241660955#7 -4045329#5"/>
    </vehicle>
    <vehicle id="177" depart="201.28" departSpeed="max">
        <route edges="4999334 241660955#6 241660955#7 241660955#10 -4045330"/>
    </vehicle>
    <vehicle id="178" depart="202.42" departSpeed="max">
        <route edges="4999334 241660955#6 241660955#7 241660955#10 241660955#11 -41910184"/>
    </vehicle>
    <vehicle id="179" depart="203.56" departSpeed="max">