<configuration>
    <input>
        <net-file value="cologne3.net.xml"/>
        <route-files value="cologne3_v2_train.rou.xml"/>
    </input>
    <processing>
        <lateral-resolution value="1" />
        <waiting-time-memory value="10800" />
    </processing>
</configuration>