<?xml version="1.0" encoding="UTF-8"?>

<!-- generated on 2022-11-08 01:47:54 by Eclipse SUMO duarouter Version 1.14.1
<configuration xmlns:xsi="http://www.w3.org/2001/XMLSchema-instance" xsi:noNamespaceSchemaLocation="http://sumo.dlr.de/xsd/duarouterConfiguration.xsd">

    <input>
        <net-file value="5x3lane.net.xml"/>
        <route-files value="trips.trips.xml"/>
    </input>

    <output>
        <output-file value="5x3lane_2000.rou.xml"/>
    </output>

    <time>
        <begin value="0"/>
        <end value="499"/>
    </time>

    <report>
        <no-warnings value="true"/>
        <ignore-errors value="true"/>
        <no-step-log value="true"/>
    </report>

</configuration>
-->

<routes xmlns:xsi="http://www.w3.org/2001/XMLSchema-instance" xsi:noNamespaceSchemaLocation="http://sumo.dlr.de/xsd/routes_file.xsd">
    <vehicle id="10" depart="0.00" departSpeed="max">
        <route edges="E11 -E12"/>
    </vehicle>
    <vehicle id="14" depart="4.00" departSpeed="max">
        <route edges="E12 E3 -E2 -E10"/>
    </vehicle>
    <vehicle id="15" depart="5.00" departSpeed="max">
        <route edges="E13 E3 -E1 -E6"/>
    </vehicle>
    <vehicle id="16" depart="6.00" departSpeed="max">
        <route edges="E9 E2 -E3 -E12"/>
    </vehicle>
    <vehicle id="17" depart="7.00" departSpeed="max">
        <route edges="E5 E1 -E4"/>
    </vehicle>
    <vehicle id="18" depart="8.00" departSpeed="max">
        <route edges="E5 E1 -E4"/>
    </vehicle>
    <vehicle id="19" depart="9.00" departSpeed="max">
        <route edges="E5 -E7"/>
    </vehicle>
    <vehicle id="110" depart="10.00" departSpeed="max">
        <route edges="E5 E1"/>
    </vehicle>
    <vehicle id="112" depart="12.00" departSpeed="max">
        <route edges="E5 E1 -E4 -E16"/>
    </vehicle>
    <vehicle id="113" depart="13.00" departSpeed="max">
        <route edges="E8 E2 -E3 -E11"/>
    </vehicle>
    <vehicle id="115" depart="15.00" departSpeed="max">
        <route edges="E16 E4 -E3 -E13"/>
    </vehicle>
    <vehicle id="116" depart="16.00" departSpeed="max">
        <route edges="E5 E1 -E3 -E12"/>
    </vehicle>
    <vehicle id="118" depart="18.00" departSpeed="max">
        <route edges="E16 E4 -E1 -E6"/>
    </vehicle>
    <vehicle id="120" depart="20.00" departSpeed="max">
        <route edges="E16 E4 -E1 -E6"/>
    </vehicle>
    <vehicle id="123" depart="23.00" departSpeed="max">
        <route edges="E6 E1 -E3 -E11"/>
    </vehicle>
    <vehicle id="125" depart="25.00" departSpeed="max">
        <route edges="E5 E1 -E2 -E9"/>
    </vehicle>
    <vehicle id="126" depart="26.00" departSpeed="max">
        <route edges="E11 E3 -E1"/>
    </vehicle>
    <vehicle id="129" depart="29.00" departSpeed="max">
        <route edges="E7 E1 -E2"/>
    </vehicle>
    <vehicle id="133" depart="33.00" departSpeed="max">
        <route edges="E15 E4 -E3 -E11"/>
    </vehicle>
    <vehicle id="134" depart="34.00" departSpeed="max">
        <route edges="E7 E1 -E4 -E16"/>
    </vehicle>
    <vehicle id="136" depart="36.00" departSpeed="max">
        <route edges="E10 E2 -E1 -E6"/>
    </vehicle>
    <vehicle id="137" depart="37.00" departSpeed="max">
        <route edges="E13 -E12"/>
    </vehicle>
    <vehicle id="138" depart="38.00" departSpeed="max">
        <route edges="E16 E4 -E2 -E9"/>
    </vehicle>
    <vehicle id="139" depart="39.00" departSpeed="max">
        <route edges="E8 E2 -E4"/>
    </vehicle>
    <vehicle id="141" depart="41.00" departSpeed="max">
        <route edges="E5 E1 -E2 -E10"/>
    </vehicle>
    <vehicle id="142" depart="42.00" departSpeed="max">
        <route edges="E10 -E9"/>
    </vehicle>
    <vehicle id="143" depart="43.00" departSpeed="max">
        <route edges="E5 E1 -E4 -E14"/>
    </vehicle>
    <vehicle id="147" depart="47.00" departSpeed="max">
        <route edges="E7 E1 -E2 -E10"/>
    </vehicle>
    <vehicle id="150" depart="50.00" departSpeed="max">
        <route edges="E7 E1 -E4 -E14"/>
    </vehicle>
    <vehicle id="152" depart="52.00" departSpeed="max">
        <route edges="E6 -E5"/>
    </vehicle>
    <vehicle id="155" depart="55.00" departSpeed="max">
        <route edges="E5 -E6"/>
    </vehicle>
    <vehicle id="156" depart="56.00" departSpeed="max">
        <route edges="E8 E2 -E3"/>
    </vehicle>
    <vehicle id="157" depart="57.00" departSpeed="max">
        <route edges="E5 -E6"/>
    </vehicle>
    <vehicle id="159" depart="59.00" departSpeed="max">
        <route edges="E5 E1 -E4 -E15"/>
    </vehicle>
    <vehicle id="160" depart="60.00" departSpeed="max">
        <route edges="E13 E3 -E1 -E5"/>
    </vehicle>
    <vehicle id="161" depart="61.00" departSpeed="max">
        <route edges="E12 -E11"/>
    </vehicle>
    <vehicle id="162" depart="62.00" departSpeed="max">
        <route edges="E13 E3 -E1 -E5"/>
    </vehicle>
    <vehicle id="163" depart="63.00" departSpeed="max">
        <route edges="E15 E4 -E2 -E9"/>
    </vehicle>
    <vehicle id="164" depart="64.00" departSpeed="max">
        <route edges="E8 E2 -E4"/>
    </vehicle>
    <vehicle id="166" depart="66.00" departSpeed="max">
        <route edges="E16 E4 -E2 -E10"/>
    </vehicle>
    <vehicle id="167" depart="67.00" departSpeed="max">
        <route edges="E9 E2 -E4 -E16"/>
    </vehicle>
    <vehicle id="168" depart="68.00" departSpeed="max">
        <route edges="E5 E1 -E2"/>
    </vehicle>
    <vehicle id="169" depart="69.00" departSpeed="max">
        <route edges="E5 E1 -E4"/>
    </vehicle>
    <vehicle id="170" depart="70.00" departSpeed="max">
        <route edges="E15 E4 -E1 -E5"/>
    </vehicle>
    <vehicle id="171" depart="71.00" departSpeed="max">
        <route edges="E15 E4 -E2 -E9"/>
    </vehicle>
    <vehicle id="172" depart="72.00" departSpeed="max">
        <route edges="E13 E3 -E2"/>
    </vehicle>
    <vehicle id="173" depart="73.00" departSpeed="max">
        <route edges="E16 E4 -E3 -E11"/>
    </vehicle>
    <vehicle id="175" depart="75.00" departSpeed="max">
        <route edges="E16 E4 -E3 -E13"/>
    </vehicle>
    <vehicle id="176" depart="76.00" departSpeed="max">
        <route edges="E9 E2 -E1 -E7"/>
    </vehicle>
    <vehicle id="178" depart="78.00" departSpeed="max">
        <route edges="E7 E1 -E4 -E14"/>
    </vehicle>
    <vehicle id="180" depart="80.00" departSpeed="max">
        <route edges="E12 E3"/>
    </vehicle>
    <vehicle id="181" depart="81.00" departSpeed="max">
        <route edges="E7 E1 -E2 -E8"/>
    </vehicle>
    <vehicle id="182" depart="82.00" departSpeed="max">
        <route edges="E5 E1 -E4 -E16"/>
    </vehicle>
    <vehicle id="183" depart="83.00" departSpeed="max">
        <route edges="E9 E2 -E1 -E7"/>
    </vehicle>
    <vehicle id="184" depart="84.00" departSpeed="max">
        <route edges="E5 E1 -E4 -E16"/>
    </vehicle>
    <vehicle id="185" depart="85.00" departSpeed="max">
        <route edges="E6 E1 -E4"/>
    </vehicle>
    <vehicle id="186" depart="86.00" departSpeed="max">
        <route edges="E5 E1 -E3 -E13"/>
    </vehicle>
    <vehicle id="187" depart="87.00" departSpeed="max">
        <route edges="E11 E3"/>
    </vehicle>
    <vehicle id="188" depart="88.00" departSpeed="max">
        <route edges="E7 E1 -E4 -E14"/>
    </vehicle>
    <vehicle id="189" depart="89.00" departSpeed="max">
        <route edges="E12 E3 -E1"/>
    </vehicle>
    <vehicle id="191" depart="91.00" departSpeed="max">
        <route edges="E6 E1 -E3 -E12"/>
    </vehicle>
    <vehicle id="192" depart="92.00" departSpeed="max">
        <route edges="E13 E3 -E4 -E14"/>
    </vehicle>
    <vehicle id="193" depart="93.00" departSpeed="max">
        <route edges="E10 E2 -E4 -E16"/>
    </vehicle>
    <vehicle id="194" depart="94.00" departSpeed="max">
        <route edges="E5 E1 -E2 -E9"/>
    </vehicle>
    <vehicle id="195" depart="95.00" departSpeed="max">
        <route edges="E5 E1 -E2"/>
    </vehicle>
    <vehicle id="196" depart="96.00" departSpeed="max">
        <route edges="E16 E4"/>
    </vehicle>
    <vehicle id="198" depart="98.00" departSpeed="max">
        <route edges="E8 E2 -E3 -E11"/>
    </vehicle>
    <vehicle id="199" depart="99.00" departSpeed="max">
        <route edges="E5 E1 -E3 -E11"/>
    </vehicle>
    <vehicle id="1100" depart="100.00" departSpeed="max">
        <route edges="E5 -E7"/>
    </vehicle>
    <vehicle id="1101" depart="101.00" departSpeed="max">
        <route edges="E5 E1 -E2 -E10"/>
    </vehicle>
    <vehicle id="1102" depart="102.00" departSpeed="max">
        <route edges="E8 E2 -E1 -E6"/>
    </vehicle>
    <vehicle id="1103" depart="103.00" departSpeed="max">
        <route edges="E5 E1 -E4 -E15"/>
    </vehicle>
    <vehicle id="1104" depart="104.00" departSpeed="max">
        <route edges="E5 E1"/>
    </vehicle>
    <vehicle id="1105" depart="105.00" departSpeed="max">
        <route edges="E15 E4 -E3 -E13"/>
    </vehicle>
    <vehicle id="1106" depart="106.00" departSpeed="max">
        <route edges="E10 -E8"/>
    </vehicle>
    <vehicle id="1107" depart="107.00" departSpeed="max">
        <route edges="E11 E3 -E4"/>
    </vehicle>
    <vehicle id="1109" depart="109.00" departSpeed="max">
        <route edges="E7 E1 -E4 -E16"/>
    </vehicle>
    <vehicle id="1110" depart="110.00" departSpeed="max">
        <route edges="E6 E1"/>
    </vehicle>
    <vehicle id="1111" depart="111.00" departSpeed="max">
        <route edges="E6 E1 -E3"/>
    </vehicle>
    <vehicle id="1112" depart="112.00" departSpeed="max">
        <route edges="E5 E1 -E2 -E8"/>
    </vehicle>
    <vehicle id="1113" depart="113.00" departSpeed="max">
        <route edges="E14 E4 -E1"/>
    </vehicle>
    <vehicle id="1115" depart="115.00" departSpeed="max">
        <route edges="E7 E1 -E2"/>
    </vehicle>
    <vehicle id="1116" depart="116.00" departSpeed="max">
        <route edges="E12 E3 -E1 -E5"/>
    </vehicle>
    <vehicle id="1117" depart="117.00" departSpeed="max">
        <route edges="E5 E1 -E4 -E16"/>
    </vehicle>
    <vehicle id="1118" depart="118.00" departSpeed="max">
        <route edges="E5 E1 -E4 -E14"/>
    </vehicle>
    <vehicle id="1119" depart="119.00" departSpeed="max">
        <route edges="E6 -E7"/>
    </vehicle>
    <vehicle id="1122" depart="122.00" departSpeed="max">
        <route edges="E5 E1 -E3 -E13"/>
    </vehicle>
    <vehicle id="1123" depart="123.00" departSpeed="max">
        <route edges="E5 -E7"/>
    </vehicle>
    <vehicle id="1124" depart="124.00" departSpeed="max">
        <route edges="E5 E1 -E3 -E12"/>
    </vehicle>
    <vehicle id="1125" depart="125.00" departSpeed="max">
        <route edges="E7 E1 -E4 -E14"/>
    </vehicle>
    <vehicle id="1127" depart="127.00" departSpeed="max">
        <route edges="E15 E4 -E1 -E7"/>
    </vehicle>
    <vehicle id="1128" depart="128.00" departSpeed="max">
        <route edges="E5 E1 -E4"/>
    </vehicle>
    <vehicle id="1129" depart="129.00" departSpeed="max">
        <route edges="E9 E2"/>
    </vehicle>
    <vehicle id="1130" depart="130.00" departSpeed="max">
        <route edges="E13 E3 -E1 -E5"/>
    </vehicle>
    <vehicle id="1131" depart="131.00" departSpeed="max">
        <route edges="E13 -E11"/>
    </vehicle>
    <vehicle id="1132" depart="132.00" departSpeed="max">
        <route edges="E6 E1 -E2 -E10"/>
    </vehicle>
    <vehicle id="1133" depart="133.00" departSpeed="max">
        <route edges="E15 E4 -E3 -E11"/>
    </vehicle>
    <vehicle id="1134" depart="134.00" departSpeed="max">
        <route edges="E16 E4 -E3 -E12"/>
    </vehicle>
    <vehicle id="1136" depart="136.00" departSpeed="max">
        <route edges="E10 E2 -E1 -E6"/>
    </vehicle>
    <vehicle id="1137" depart="137.00" departSpeed="max">
        <route edges="E10 E2 -E1 -E5"/>
    </vehicle>
    <vehicle id="1138" depart="138.00" departSpeed="max">
        <route edges="E7 E1 -E2 -E10"/>
    </vehicle>
    <vehicle id="1139" depart="139.00" departSpeed="max">
        <route edges="E15 E4 -E2 -E8"/>
    </vehicle>
    <vehicle id="1140" depart="140.00" departSpeed="max">
        <route edges="E8 E2 -E3 -E12"/>
    </vehicle>
    <vehicle id="1141" depart="141.00" departSpeed="max">
        <route edges="E15 E4 -E1 -E7"/>
    </vehicle>
    <vehicle id="1143" depart="143.00" departSpeed="max">
        <route edges="E5 E1"/>
    </vehicle>
    <vehicle id="1145" depart="145.00" departSpeed="max">
        <route edges="E5 E1 -E3 -E12"/>
    </vehicle>
    <vehicle id="1146" depart="146.00" departSpeed="max">
        <route edges="E8 E2 -E4"/>
    </vehicle>
    <vehicle id="1147" depart="147.00" departSpeed="max">
        <route edges="E12 E3"/>
    </vehicle>
    <vehicle id="1148" depart="148.00" departSpeed="max">
        <route edges="E8 E2 -E1"/>
    </vehicle>
    <vehicle id="1149" depart="149.00" departSpeed="max">
        <route edges="E12 E3 -E4"/>
    </vehicle>
    <vehicle id="1150" depart="150.00" departSpeed="max">
        <route edges="E10 E2 -E1 -E6"/>
    </vehicle>
    <vehicle id="1151" depart="151.00" departSpeed="max">
        <route edges="E6 E1 -E3 -E13"/>
    </vehicle>
    <vehicle id="1152" depart="152.00" departSpeed="max">
        <route edges="E8 E2 -E3"/>
    </vehicle>
    <vehicle id="1154" depart="154.00" departSpeed="max">
        <route edges="E5 -E7"/>
    </vehicle>
    <vehicle id="1155" depart="155.00" departSpeed="max">
        <route edges="E6 E1 -E2 -E10"/>
    </vehicle>
    <vehicle id="1156" depart="156.00" departSpeed="max">
        <route edges="E5 E1 -E3 -E13"/>
    </vehicle>
    <vehicle id="1157" depart="157.00" departSpeed="max">
        <route edges="E6 E1 -E4 -E16"/>
    </vehicle>
    <vehicle id="1158" depart="158.00" departSpeed="max">
        <route edges="E10 E2 -E1"/>
    </vehicle>
    <vehicle id="1160" depart="160.00" departSpeed="max">
        <route edges="E16 E4 -E1 -E5"/>
    </vehicle>
    <vehicle id="1161" depart="161.00" departSpeed="max">
        <route edges="E15 E4 -E2 -E8"/>
    </vehicle>
    <vehicle id="1167" depart="167.00" departSpeed="max">
        <route edges="E5 E1 -E3 -E13"/>
    </vehicle>
    <vehicle id="1168" depart="168.00" departSpeed="max">
        <route edges="E6 E1"/>
    </vehicle>
    <vehicle id="1170" depart="170.00" departSpeed="max">
        <route edges="E15 E4 -E2"/>
    </vehicle>
    <vehicle id="1172" depart="172.00" departSpeed="max">
        <route edges="E6 E1 -E4 -E16"/>
    </vehicle>
    <vehicle id="1173" depart="173.00" departSpeed="max">
        <route edges="E5 E1 -E2 -E10"/>
    </vehicle>
    <vehicle id="1174" depart="174.00" departSpeed="max">
        <route edges="E7 E1 -E2 -E10"/>
    </vehicle>
    <vehicle id="1175" depart="175.00" departSpeed="max">
        <route edges="E12 E3 -E4 -E15"/>
    </vehicle>
    <vehicle id="1176" depart="176.00" departSpeed="max">
        <route edges="E6 -E7"/>
    </vehicle>
    <vehicle id="1177" depart="177.00" departSpeed="max">
        <route edges="E8 E2 -E1 -E5"/>
    </vehicle>
    <vehicle id="1178" depart="178.00" departSpeed="max">
        <route edges="E6 E1 -E2"/>
    </vehicle>
    <vehicle id="1180" depart="180.00" departSpeed="max">
        <route edges="E7 E1 -E2 -E9"/>
    </vehicle>
    <vehicle id="1181" depart="181.00" departSpeed="max">
        <route edges="E5 E1 -E4 -E15"/>
    </vehicle>
    <vehicle id="1182" depart="182.00" departSpeed="max">
        <route edges="E14 E4 -E3"/>
    </vehicle>
    <vehicle id="1183" depart="183.00" departSpeed="max">
        <route edges="E5 -E7"/>
    </vehicle>
    <vehicle id="1184" depart="184.00" departSpeed="max">
        <route edges="E6 -E5"/>
    </vehicle>
    <vehicle id="1185" depart="185.00" departSpeed="max">
        <route edges="E16 E4 -E2 -E8"/>
    </vehicle>
    <vehicle id="1186" depart="186.00" departSpeed="max">
        <route edges="E13 E3 -E4"/>
    </vehicle>
    <vehicle id="1187" depart="187.00" departSpeed="max">
        <route edges="E9 E2 -E1 -E7"/>
    </vehicle>
    <vehicle id="1189" depart="189.00" departSpeed="max">
        <route edges="E15 E4 -E3 -E12"/>
    </vehicle>
    <vehicle id="1191" depart="191.00" departSpeed="max">
        <route edges="E16 E4 -E1 -E7"/>
    </vehicle>
    <vehicle id="1192" depart="192.00" departSpeed="max">
        <route edges="E5 E1 -E2 -E10"/>
    </vehicle>
    <vehicle id="1193" depart="193.00" departSpeed="max">
        <route edges="E11 E3 -E4 -E14"/>
    </vehicle>
    <vehicle id="1195" depart="195.00" departSpeed="max">
        <route edges="E7 E1 -E4 -E14"/>
    </vehicle>
    <vehicle id="1197" depart="197.00" departSpeed="max">
        <route edges="E9 -E10"/>
    </vehicle>
    <vehicle id="1198" depart="198.00" departSpeed="max">
        <route edges="E9 E2 -E1 -E7"/>
    </vehicle>
    <vehicle id="1200" depart="200.00" departSpeed="max">
        <route edges="E6 E1 -E3 -E12"/>
    </vehicle>
    <vehicle id="1202" depart="202.00" departSpeed="max">
        <route edges="E13 E3 -E1 -E7"/>
    </vehicle>
    <vehicle id="1203" depart="203.00" departSpeed="max">
        <route edges="E13 E3 -E4"/>
    </vehicle>
    <vehicle id="1205" depart="205.00" departSpeed="max">
        <route edges="E12 E3 -E1"/>
    </vehicle>
    <vehicle id="1206" depart="206.00" departSpeed="max">
        <route edges="E8 E2 -E4"/>
    </vehicle>
    <vehicle id="1207" depart="207.00" departSpeed="max">
        <route edges="E8 E2 -E1 -E5"/>
    </vehicle>
    <vehicle id="1208" depart="208.00" departSpeed="max">
        <route edges="E8 E2 -E4 -E15"/>
    </vehicle>
    <vehicle id="1209" depart="209.00" departSpeed="max">
        <route edges="E12 E3 -E1"/>
    </vehicle>
    <vehicle id="1210" depart="210.00" departSpeed="max">
        <route edges="E10 E2 -E3 -E12"/>
    </vehicle>
    <vehicle id="1211" depart="211.00" departSpeed="max">
        <route edges="E8 E2 -E3 -E11"/>
    </vehicle>
    <vehicle id="1212" depart="212.00" departSpeed="max">
        <route edges="E5 E1 -E2 -E10"/>
    </vehicle>
    <vehicle id="1213" depart="213.00" departSpeed="max">
        <route edges="E7 E1 -E3 -E13"/>
    </vehicle>
    <vehicle id="1214" depart="214.00" departSpeed="max">
        <route edges="E14 E4 -E1"/>
    </vehicle>
    <vehicle id="1215" depart="215.00" departSpeed="max">
        <route edges="E5 E1"/>
    </vehicle>
    <vehicle id="1216" depart="216.00" departSpeed="max">
        <route edges="E7 E1"/>
    </vehicle>
    <vehicle id="1217" depart="217.00" departSpeed="max">
        <route edges="E16 E4 -E3 -E11"/>
    </vehicle>
    <vehicle id="1218" depart="218.00" departSpeed="max">
        <route edges="E7 E1 -E2 -E8"/>
    </vehicle>
    <vehicle id="1219" depart="219.00" departSpeed="max">
        <route edges="E8 E2 -E3 -E11"/>
    </vehicle>
    <vehicle id="1221" depart="221.00" departSpeed="max">
        <route edges="E5 E1 -E2 -E8"/>
    </vehicle>
    <vehicle id="1224" depart="224.00" departSpeed="max">
        <route edges="E16 E4 -E2 -E9"/>
    </vehicle>
    <vehicle id="1226" depart="226.00" departSpeed="max">
        <route edges="E9 E2 -E1"/>
    </vehicle>
    <vehicle id="1228" depart="228.00" departSpeed="max">
        <route edges="E12 E3 -E1 -E7"/>
    </vehicle>
    <vehicle id="1229" depart="229.00" departSpeed="max">
        <route edges="E11 E3 -E4 -E15"/>
    </vehicle>
    <vehicle id="1230" depart="230.00" departSpeed="max">
        <route edges="E15 E4 -E2"/>
    </vehicle>
    <vehicle id="1232" depart="232.00" departSpeed="max">
        <route edges="E15 E4 -E1"/>
    </vehicle>
    <vehicle id="1234" depart="234.00" departSpeed="max">
        <route edges="E5 E1 -E4 -E14"/>
    </vehicle>
    <vehicle id="1235" depart="235.00" departSpeed="max">
        <route edges="E15 -E14"/>
    </vehicle>
    <vehicle id="1236" depart="236.00" departSpeed="max">
        <route edges="E13 E3 -E1"/>
    </vehicle>
    <vehicle id="1238" depart="238.00" departSpeed="max">
        <route edges="E12 E3 -E4 -E15"/>
    </vehicle>
    <vehicle id="1242" depart="242.00" departSpeed="max">
        <route edges="E11 -E13"/>
    </vehicle>
    <vehicle id="1245" depart="245.00" departSpeed="max">
        <route edges="E7 E1 -E4"/>
    </vehicle>
    <vehicle id="1247" depart="247.00" departSpeed="max">
        <route edges="E5 E1 -E3"/>
    </vehicle>
    <vehicle id="1248" depart="248.00" departSpeed="max">
        <route edges="E5 -E7"/>
    </vehicle>
    <vehicle id="1249" depart="249.00" departSpeed="max">
        <route edges="E6 E1 -E2 -E10"/>
    </vehicle>
    <vehicle id="1252" depart="252.00" departSpeed="max">
        <route edges="E9 -E10"/>
    </vehicle>
    <vehicle id="1253" depart="253.00" departSpeed="max">
        <route edges="E5 E1 -E4"/>
    </vehicle>
    <vehicle id="1254" depart="254.00" departSpeed="max">
        <route edges="E5 E1 -E4 -E15"/>
    </vehicle>
    <vehicle id="1255" depart="255.00" departSpeed="max">
        <route edges="E16 E4"/>
    </vehicle>
    <vehicle id="1256" depart="256.00" departSpeed="max">
        <route edges="E8 -E9"/>
    </vehicle>
    <vehicle id="1257" depart="257.00" departSpeed="max">
        <route edges="E8 E2 -E4 -E15"/>
    </vehicle>
    <vehicle id="1260" depart="260.00" departSpeed="max">
        <route edges="E5 E1 -E3 -E11"/>
    </vehicle>
    <vehicle id="1264" depart="264.00" departSpeed="max">
        <route edges="E5 E1 -E2 -E8"/>
    </vehicle>
    <vehicle id="1265" depart="265.00" departSpeed="max">
        <route edges="E9 E2 -E1 -E6"/>
    </vehicle>
    <vehicle id="1266" depart="266.00" departSpeed="max">
        <route edges="E7 E1 -E4 -E15"/>
    </vehicle>
    <vehicle id="1267" depart="267.00" departSpeed="max">
        <route edges="E7 -E6"/>
    </vehicle>
    <vehicle id="1268" depart="268.00" departSpeed="max">
        <route edges="E5 E1 -E4 -E16"/>
    </vehicle>
    <vehicle id="1269" depart="269.00" departSpeed="max">
        <route edges="E5 E1 -E4 -E14"/>
    </vehicle>
    <vehicle id="1270" depart="270.00" departSpeed="max">
        <route edges="E16 E4 -E3 -E13"/>
    </vehicle>
    <vehicle id="1271" depart="271.00" departSpeed="max">
        <route edges="E8 E2 -E1 -E6"/>
    </vehicle>
    <vehicle id="1272" depart="272.00" departSpeed="max">
        <route edges="E14 E4 -E2 -E8"/>
    </vehicle>
    <vehicle id="1273" depart="273.00" departSpeed="max">
        <route edges="E6 -E5"/>
    </vehicle>
    <vehicle id="1274" depart="274.00" departSpeed="max">
        <route edges="E7 E1 -E3"/>
    </vehicle>
    <vehicle id="1276" depart="276.00" departSpeed="max">
        <route edges="E16 E4 -E1 -E6"/>
    </vehicle>
    <vehicle id="1277" depart="277.00" departSpeed="max">
        <route edges="E9 -E10"/>
    </vehicle>
    <vehicle id="1279" depart="279.00" departSpeed="max">
        <route edges="E5 E1 -E3 -E12"/>
    </vehicle>
    <vehicle id="1280" depart="280.00" departSpeed="max">
        <route edges="E6 E1 -E2 -E10"/>
    </vehicle>
    <vehicle id="1284" depart="284.00" departSpeed="max">
        <route edges="E5 E1"/>
    </vehicle>
    <vehicle id="1285" depart="285.00" departSpeed="max">
        <route edges="E6 E1 -E2"/>
    </vehicle>
    <vehicle id="1286" depart="286.00" departSpeed="max">
        <route edges="E5 E1 -E3"/>
    </vehicle>
    <vehicle id="1288" depart="288.00" departSpeed="max">
        <route edges="E13 E3 -E2 -E10"/>
    </vehicle>
    <vehicle id="1289" depart="289.00" departSpeed="max">
        <route edges="E5 E1 -E4 -E16"/>
    </vehicle>
    <vehicle id="1290" depart="290.00" departSpeed="max">
        <route edges="E5 E1 -E2 -E10"/>
    </vehicle>
    <vehicle id="1291" depart="291.00" departSpeed="max">
        <route edges="E6 E1 -E3"/>
    </vehicle>
    <vehicle id="1292" depart="292.00" departSpeed="max">
        <route edges="E5 -E7"/>
    </vehicle>
    <vehicle id="1293" depart="293.00" departSpeed="max">
        <route edges="E13 -E12"/>
    </vehicle>
    <vehicle id="1294" depart="294.00" departSpeed="max">
        <route edges="E15 E4 -E1 -E7"/>
    </vehicle>
    <vehicle id="1295" depart="295.00" departSpeed="max">
        <route edges="E8 E2 -E1 -E5"/>
    </vehicle>
    <vehicle id="1296" depart="296.00" departSpeed="max">
        <route edges="E7 E1 -E3 -E13"/>
    </vehicle>
    <vehicle id="1297" depart="297.00" departSpeed="max">
        <route edges="E7 E1 -E3 -E12"/>
    </vehicle>
    <vehicle id="1299" depart="299.00" departSpeed="max">
        <route edges="E12 E3 -E4 -E16"/>
    </vehicle>
    <vehicle id="1301" depart="301.00" departSpeed="max">
        <route edges="E5 -E6"/>
    </vehicle>
    <vehicle id="1302" depart="302.00" departSpeed="max">
        <route edges="E5 E1"/>
    </vehicle>
    <vehicle id="1304" depart="304.00" departSpeed="max">
        <route edges="E8 E2 -E3 -E13"/>
    </vehicle>
    <vehicle id="1305" depart="305.00" departSpeed="max">
        <route edges="E13 -E12"/>
    </vehicle>
    <vehicle id="1306" depart="306.00" departSpeed="max">
        <route edges="E9 E2 -E3 -E12"/>
    </vehicle>
    <vehicle id="1308" depart="308.00" departSpeed="max">
        <route edges="E16 E4 -E2 -E9"/>
    </vehicle>
    <vehicle id="1309" depart="309.00" departSpeed="max">
        <route edges="E8 E2 -E1 -E7"/>
    </vehicle>
    <vehicle id="1310" depart="310.00" departSpeed="max">
        <route edges="E7 E1 -E3 -E12"/>
    </vehicle>
    <vehicle id="1311" depart="311.00" departSpeed="max">
        <route edges="E13 E3 -E4 -E14"/>
    </vehicle>
    <vehicle id="1312" depart="312.00" departSpeed="max">
        <route edges="E11 E3 -E4 -E15"/>
    </vehicle>
    <vehicle id="1313" depart="313.00" departSpeed="max">
        <route edges="E11 E3 -E2 -E8"/>
    </vehicle>
    <vehicle id="1314" depart="314.00" departSpeed="max">
        <route edges="E15 E4 -E1 -E7"/>
    </vehicle>
    <vehicle id="1316" depart="316.00" departSpeed="max">
        <route edges="E13 E3 -E1 -E5"/>
    </vehicle>
    <vehicle id="1317" depart="317.00" departSpeed="max">
        <route edges="E13 E3 -E2"/>
    </vehicle>
    <vehicle id="1318" depart="318.00" departSpeed="max">
        <route edges="E7 E1 -E2 -E9"/>
    </vehicle>
    <vehicle id="1319" depart="319.00" departSpeed="max">
        <route edges="E12 -E13"/>
    </vehicle>
    <vehicle id="1321" depart="321.00" departSpeed="max">
        <route edges="E10 E2 -E1 -E7"/>
    </vehicle>
    <vehicle id="1322" depart="322.00" departSpeed="max">
        <route edges="E5 -E7"/>
    </vehicle>
    <vehicle id="1323" depart="323.00" departSpeed="max">
        <route edges="E11 E3 -E1 -E7"/>
    </vehicle>
    <vehicle id="1324" depart="324.00" departSpeed="max">
        <route edges="E11 E3"/>
    </vehicle>
    <vehicle id="1327" depart="327.00" departSpeed="max">
        <route edges="E9 E2 -E3 -E13"/>
    </vehicle>
    <vehicle id="1328" depart="328.00" departSpeed="max">
        <route edges="E5 E1 -E3 -E12"/>
    </vehicle>
    <vehicle id="1329" depart="329.00" departSpeed="max">
        <route edges="E9 E2 -E4 -E16"/>
    </vehicle>
    <vehicle id="1330" depart="330.00" departSpeed="max">
        <route edges="E7 E1 -E3 -E13"/>
    </vehicle>
    <vehicle id="1332" depart="332.00" departSpeed="max">
        <route edges="E10 E2 -E1 -E5"/>
    </vehicle>
    <vehicle id="1333" depart="333.00" departSpeed="max">
        <route edges="E5 E1 -E3 -E13"/>
    </vehicle>
    <vehicle id="1334" depart="334.00" departSpeed="max">
        <route edges="E5 E1 -E4"/>
    </vehicle>
    <vehicle id="1335" depart="335.00" departSpeed="max">
        <route edges="E15 E4 -E3 -E11"/>
    </vehicle>
    <vehicle id="1336" depart="336.00" departSpeed="max">
        <route edges="E6 E1 -E4 -E14"/>
    </vehicle>
    <vehicle id="1338" depart="338.00" departSpeed="max">
        <route edges="E11 E3 -E2 -E9"/>
    </vehicle>
    <vehicle id="1339" depart="339.00" departSpeed="max">
        <route edges="E5 E1 -E2 -E8"/>
    </vehicle>
    <vehicle id="1340" depart="340.00" departSpeed="max">
        <route edges="E5 E1 -E2 -E8"/>
    </vehicle>
    <vehicle id="1341" depart="341.00" departSpeed="max">
        <route edges="E11 E3 -E2 -E9"/>
    </vehicle>
    <vehicle id="1342" depart="342.00" departSpeed="max">
        <route edges="E15 E4 -E1 -E7"/>
    </vehicle>
    <vehicle id="1343" depart="343.00" departSpeed="max">
        <route edges="E5 E1 -E3 -E11"/>
    </vehicle>
    <vehicle id="1344" depart="344.00" departSpeed="max">
        <route edges="E11 E3 -E4 -E15"/>
    </vehicle>
    <vehicle id="1345" depart="345.00" departSpeed="max">
        <route edges="E15 E4 -E2 -E9"/>
    </vehicle>
    <vehicle id="1346" depart="346.00" departSpeed="max">
        <route edges="E9 E2 -E3 -E11"/>
    </vehicle>
    <vehicle id="1348" depart="348.00" departSpeed="max">
        <route edges="E11 E3 -E2"/>
    </vehicle>
    <vehicle id="1349" depart="349.00" departSpeed="max">
        <route edges="E7 E1 -E4 -E14"/>
    </vehicle>
    <vehicle id="1350" depart="350.00" departSpeed="max">
        <route edges="E7 -E5"/>
    </vehicle>
    <vehicle id="1351" depart="351.00" departSpeed="max">
        <route edges="E12 E3 -E1 -E5"/>
    </vehicle>
    <vehicle id="1354" depart="354.00" departSpeed="max">
        <route edges="E16 E4 -E1 -E6"/>
    </vehicle>
    <vehicle id="1356" depart="356.00" departSpeed="max">
        <route edges="E6 E1 -E3 -E11"/>
    </vehicle>
    <vehicle id="1357" depart="357.00" departSpeed="max">
        <route edges="E11 E3 -E2 -E9"/>
    </vehicle>
    <vehicle id="1358" depart="358.00" departSpeed="max">
        <route edges="E9 E2 -E1 -E7"/>
    </vehicle>
    <vehicle id="1359" depart="359.00" departSpeed="max">
        <route edges="E7 E1 -E4 -E15"/>
    </vehicle>
    <vehicle id="1360" depart="360.00" departSpeed="max">
        <route edges="E15 -E16"/>
    </vehicle>
    <vehicle id="1361" depart="361.00" departSpeed="max">
        <route edges="E6 E1 -E2 -E10"/>
    </vehicle>
    <vehicle id="1362" depart="362.00" departSpeed="max">