<?xml version="1.0" encoding="UTF-8"?>

<!-- generated on 2025-01-06 23:36:09.751808 by randomTrips.py v1_20_0+0002-343658e7c64
<configuration>
    <net-file value="3x3.net.xml"/>
    <output-trip-file value="trips.trips.xml"/>
    <route-file value="3x3_medium.rou.xml"/>
    <trip-attributes value="departSpeed='max'"/>
    <fringe-factor value="max"/>
    <insertion-density value="150.0"/>
</configuration>
-->

<!-- generated on 2025-01-06 23:36:09 by Eclipse SUMO duarouter Version 1.20.0
<configuration xmlns:xsi="http://www.w3.org/2001/XMLSchema-instance" xsi:noNamespaceSchemaLocation="http://sumo.dlr.de/xsd/duarouterConfiguration.xsd">

    <input>
        <net-file value="3x3.net.xml"/>
        <route-files value="trips.trips.xml"/>
    </input>

    <output>
        <output-file value="3x3_medium.rou.xml"/>
        <alternatives-output value="NUL"/>
    </output>

    <time>
        <begin value="0"/>
        <end value="3600.0"/>
    </time>

    <report>
        <no-warnings value="true"/>
        <ignore-errors value="true"/>
        <no-step-log value="true"/>
    </report>

</configuration>
-->

<routes xmlns:xsi="http://www.w3.org/2001/XMLSchema-instance" xsi:noNamespaceSchemaLocation="http://sumo.dlr.de/xsd/routes_file.xsd">
    <vehicle id="0" depart="0.00" departSpeed="max">
        <route edges="E30_31 E31_21 E21_11 E11_01"/>
    </vehicle>
    <vehicle id="1" depart="0.60" departSpeed="max">
        <route edges="E10_11 E11_12 E12_02"/>
    </vehicle>
    <vehicle id="2" depart="1.19" departSpeed="max">
        <route edges="E34_33 E33_32 E32_31 E31_41"/>
    </vehicle>
    <vehicle id="3" depart="1.79" departSpeed="max">
        <route edges="E42_32 E32_22 E22_12 E12_11 E11_10"/>
    </vehicle>
    <vehicle id="4" depart="2.38" departSpeed="max">
        <route edges="E20_21 E21_11 E11_01"/>
    </vehicle>
    <vehicle id="5" depart="2.98" departSpeed="max">
        <route edges="E03_13 E13_23 E23_24"/>
    </vehicle>
    <vehicle id="6" depart="3.58" departSpeed="max">
        <route edges="E01_11 E11_12 E12_02"/>
    </vehicle>
    <vehicle id="7" depart="4.17" departSpeed="max">
        <route edges="E30_31 E31_21 E21_22 E22_23 E23_24"/>
    </vehicle>
    <vehicle id="8" depart="4.77" departSpeed="max">
        <route edges="E03_13 E13_23 E23_33 E33_32 E32_31 E31_30"/>
    </vehicle>
    <vehicle id="9" depart="5.36" departSpeed="max">
        <route edges="E41_31 E31_21 E21_11 E11_01"/>
    </vehicle>
    <vehicle id="10" depart="5.96" departSpeed="max">
        <route edges="E41_31 E31_21 E21_22 E22_32 E32_31 E31_41"/>
    </vehicle>
    <vehicle id="11" depart="6.56" departSpeed="max">
        <route edges="E14_13 E13_12 E12_11 E11_10"/>
    </vehicle>
    <vehicle id="12" depart="7.15" departSpeed="max">
        <route edges="E43_33 E33_23 E23_13 E13_14"/>
    </vehicle>
    <vehicle id="13" depart="7.75" departSpeed="max">
        <route edges="E02_12 E12_11 E11_10"/>
    </vehicle>
    <vehicle id="14" depart="8.35" departSpeed="max">
        <route edges="E42_32 E32_31 E31_30"/>
    </vehicle>
    <vehicle id="15" depart="8.94" departSpeed="max">
        <route edges="E41_31 E31_21 E21_22 E22_32 E32_31 E31_41"/>
    </vehicle>
    <vehicle id="16" depart="9.54" departSpeed="max">
        <route edges="E24_23 E23_33 E33_43"/>
    </vehicle>
    <vehicle id="17" depart="10.13" departSpeed="max">
        <route edges="E14_13 E13_23 E23_24"/>
    </vehicle>
    <vehicle id="18" depart="10.73" departSpeed="max">
        <route edges="E41_31 E31_30"/>
    </vehicle>
    <vehicle id="19" depart="11.33" departSpeed="max">
        <route edges="E42_32 E32_22 E22_23 E23_24"/>
    </vehicle>
    <vehicle id="20" depart="11.92" departSpeed="max">
        <route edges="E34_33 E33_32 E32_31 E31_21 E21_11 E11_01"/>
    </vehicle>
    <vehicle id="21" depart="12.52" departSpeed="max">
        <route edges="E03_13 E13_23 E23_22 E22_12 E12_13 E13_03"/>
    </vehicle>
    <vehicle id="22" depart="13.11" departSpeed="max">
        <route edges="E01_11 E11_12 E12_02"/>
    </vehicle>
    <vehicle id="23" depart="13.71" departSpeed="max">
        <route edges="E02_12 E12_13 E13_03"/>
    </vehicle>
    <vehicle id="24" depart="14.31" departSpeed="max">
        <route edges="E30_31 E31_21 E21_11 E11_12 E12_13 E13_14"/>
    </vehicle>
    <vehicle id="25" depart="14.90" departSpeed="max">
        <route edges="E14_13 E13_12 E12_02"/>
    </vehicle>
    <vehicle id="26" depart="15.50" departSpeed="max">
        <route edges="E10_11 E11_12 E12_13 E13_23 E23_33 E33_43"/>
    </vehicle>
    <vehicle id="27" depart="16.09" departSpeed="max">
        <route edges="E30_31 E31_21 E21_22 E22_32 E32_31 E31_30"/>
    </vehicle>
    <vehicle id="28" depart="16.69" departSpeed="max">
        <route edges="E03_13 E13_23 E23_33 E33_32 E32_31 E31_41"/>
    </vehicle>
    <vehicle id="29" depart="17.29" departSpeed="max">
        <route edges="E02_12 E12_13 E13_14"/>
    </vehicle>
    <vehicle id="30" depart="17.88" departSpeed="max">
        <route edges="E43_33 E33_32 E32_31 E31_30"/>
    </vehicle>
    <vehicle id="31" depart="18.48" departSpeed="max">
        <route edges="E24_23 E23_22 E22_21 E21_31 E31_41"/>
    </vehicle>
    <vehicle id="32" depart="19.07" departSpeed="max">
        <route edges="E42_32 E32_31 E31_21 E21_22 E22_32 E32_42"/>
    </vehicle>
    <vehicle id="33" depart="19.67" departSpeed="max">
        <route edges="E03_13 E13_12 E12_11 E11_01"/>
    </vehicle>
    <vehicle id="34" depart="20.27" departSpeed="max">
        <route edges="E10_11 E11_12 E12_13 E13_03"/>
    </vehicle>
    <vehicle id="35" depart="20.86" departSpeed="max">
        <route edges="E03_13 E13_23 E23_33 E33_43"/>
    </vehicle>
    <vehicle id="36" depart="21.46" departSpeed="max">
        <route edges="E42_32 E32_33 E33_23 E23_13 E13_03"/>
    </vehicle>
    <vehicle id="37" depart="22.06" departSpeed="max">
        <route edges="E30_31 E31_21 E21_11 E11_12 E12_13 E13_14"/>
    </vehicle>
    <vehicle id="38" depart="22.65" departSpeed="max">
        <route edges="E42_32 E32_22 E22_21 E21_20"/>
    </vehicle>
    <vehicle id="39" depart="23.25" departSpeed="max">
        <route edges="E10_11 E11_12 E12_02"/>
    </vehicle>
    <vehicle id="40" depart="23.84" departSpeed="max">
        <route edges="E24_23 E23_13 E13_03"/>
    </vehicle>
    <vehicle id="41" depart="24.44" departSpeed="max">
        <route edges="E30_31 E31_32 E32_33 E33_34"/>
    </vehicle>
    <vehicle id="42" depart="25.04" departSpeed="max">
        <route edges="E14_13 E13_12 E12_02"/>
    </vehicle>
    <vehicle id="43" depart="25.63" departSpeed="max">
        <route edges="E43_33 E33_23 E23_24"/>
    </vehicle>
    <vehicle id="44" depart="26.23" departSpeed="max">
        <route edges="E02_12 E12_11 E11_01"/>
    </vehicle>
    <vehicle id="45" depart="26.82" departSpeed="max">
        <route edges="E02_12 E12_22 E22_32 E32_31 E31_30"/>
    </vehicle>
    <vehicle id="46" depart="27.42" departSpeed="max">
        <route edges="E41_31 E31_21 E21_20"/>
    </vehicle>
    <vehicle id="47" depart="28.02" departSpeed="max">
        <route edges="E01_11 E11_12 E12_13 E13_14"/>
    </vehicle>
    <vehicle id="48" depart="28.61" departSpeed="max">
        <route edges="E43_33 E33_23 E23_24"/>
    </vehicle>
    <vehicle id="49" depart="29.21" departSpeed="max">
        <route edges="E43_33 E33_34"/>
    </vehicle>
    <vehicle id="50" depart="29.80" departSpeed="max">
        <route edges="E01_11 E11_21 E21_31 E31_41"/>
    </vehicle>
    <vehicle id="51" depart="30.40" departSpeed="max">
        <route edges="E34_33 E33_23 E23_24"/>
    </vehicle>
    <vehicle id="52" depart="31.00" departSpeed="max">
        <route edges="E10_11 E11_21 E21_31 E31_30"/>
    </vehicle>
    <vehicle id="53" depart="31.59" departSpeed="max">
        <route edges="E02_12 E12_22 E22_21 E21_20"/>
    </vehicle>
    <vehicle id="54" depart="32.19" departSpeed="max">
        <route edges="E20_21 E21_22 E22_23 E23_33 E33_43"/>
    </vehicle>
    <vehicle id="55" depart="32.78" departSpeed="max">
        <route edges="E42_32 E32_33 E33_23 E23_13 E13_03"/>
    </vehicle>
    <vehicle id="56" depart="33.38" departSpeed="max">
        <route edges="E24_23 E23_22 E22_12 E12_02"/>
    </vehicle>
    <vehicle id="57" depart="33.98" departSpeed="max">
        <route edges="E42_32 E32_33 E33_34"/>
    </vehicle>
    <vehicle id="58" depart="34.57" departSpeed="max">
        <route edges="E10_11 E11_21 E21_31 E31_30"/>
    </vehicle>
    <vehicle id="59" depart="35.17" departSpeed="max">
        <route edges="E30_31 E31_21 E21_11 E11_10"/>
    </vehicle>
    <vehicle id="60" depart="35.77" departSpeed="max">
        <route edges="E41_31 E31_21 E21_22 E22_23 E23_24"/>
    </vehicle>
    <vehicle id="61" depart="36.36" departSpeed="max">
        <route edges="E41_31 E31_21 E21_22 E22_23 E23_24"/>
    </vehicle>
    <vehicle id="62" depart="36.96" departSpeed="max">
        <route edges="E01_11 E11_12 E12_13 E13_03"/>
    </vehicle>
    <vehicle id="63" depart="37.55" departSpeed="max">
        <route edges="E01_11 E11_12 E12_13 E13_23 E23_33 E33_43"/>
    </vehicle>
    <vehicle id="64" depart="38.15" departSpeed="max">
        <route edges="E42_32 E32_31 E31_21 E21_22 E22_32 E32_42"/>
    </vehicle>
    <vehicle id="65" depart="38.75" departSpeed="max">
        <route edges="E10_11 E11_01"/>
    </vehicle>
    <vehicle id="66" depart="39.34" departSpeed="max">
        <route edges="E42_32 E32_33 E33_43"/>
    </vehicle>
    <vehicle id="67" depart="39.94" departSpeed="max">
        <route edges="E02_12 E12_22 E22_21 E21_20"/>
    </vehicle>
    <vehicle id="68" depart="40.53" departSpeed="max">
        <route edges="E01_11 E11_12 E12_22 E22_32 E32_42"/>
    </vehicle>
    <vehicle id="69" depart="41.13" departSpeed="max">
        <route edges="E41_31 E31_21 E21_11 E11_10"/>
    </vehicle>
    <vehicle id="70" depart="41.73" departSpeed="max">
        <route edges="E20_21 E21_22 E22_23 E23_24"/>
    </vehicle>
    <vehicle id="71" depart="42.32" departSpeed="max">
        <route edges="E10_11 E11_12 E12_13 E13_23 E23_33 E33_34"/>
    </vehicle>
    <vehicle id="72" depart="42.92" departSpeed="max">
        <route edges="E20_21 E21_22 E22_12 E12_02"/>
    </vehicle>
    <vehicle id="73" depart="43.51" departSpeed="max">
        <route edges="E24_23 E23_22 E22_21 E21_31 E31_41"/>
    </vehicle>
    <vehicle id="74" depart="44.11" departSpeed="max">
        <route edges="E03_13 E13_23 E23_22 E22_12 E12_13 E13_03"/>
    </vehicle>
    <vehicle id="75" depart="44.71" departSpeed="max">
        <route edges="E43_33 E33_32 E32_31 E31_30"/>
    </vehicle>
    <vehicle id="76" depart="45.30" departSpeed="max">
        <route edges="E20_21 E21_22 E22_23 E23_24"/>
    </vehicle>
    <vehicle id="77" depart="45.90" departSpeed="max">
        <route edges="E02_12 E12_13 E13_23 E23_22 E22_12 E12_02"/>
    </vehicle>
    <vehicle id="78" depart="46.49" departSpeed="max">
        <route edges="E14_13 E13_23 E23_33 E33_32 E32_31 E31_30"/>
    </vehicle>
    <vehicle id="79" depart="47.09" departSpeed="max">
        <route edges="E03_13 E13_12 E12_02"/>
    </vehicle>
    <vehicle id="80" depart="47.69" departSpeed="max">
        <route edges="E01_11 E11_21 E21_31 E31_30"/>
    </vehicle>
    <vehicle id="81" depart="48.28" departSpeed="max">
        <route edges="E03_13 E13_23 E23_33 E33_34"/>
    </vehicle>
    <vehicle id="82" depart="48.88" departSpeed="max">
        <route edges="E42_32 E32_31 E31_21 E21_11 E11_01"/>
    </vehicle>
    <vehicle id="83" depart="49.48" departSpeed="max">
        <route edges="E03_13 E13_23 E23_33 E33_32 E32_31 E31_41"/>
    </vehicle>
    <vehicle id="84" depart="50.07" departSpeed="max">
        <route edges="E03_13 E13_12 E12_11 E11_10"/>
    </vehicle>
    <vehicle id="85" depart="50.67" departSpeed="max">
        <route edges="E43_33 E33_23 E23_24"/>
    </vehicle>
    <vehicle id="86" depart="51.26" departSpeed="max">
        <route edges="E20_21 E21_22 E22_32 E32_42"/>
    </vehicle>
    <vehicle id="87" depart="51.86" departSpeed="max">
        <route edges="E41_31 E31_32 E32_22 E22_12 E12_02"/>
    </vehicle>
    <vehicle id="88" depart="52.46" departSpeed="max">
        <route edges="E02_12 E12_22 E22_21 E21_20"/>
    </vehicle>
    <vehicle id="89" depart="53.05" departSpeed="max">
        <route edges="E20_21 E21_11 E11_12 E12_22 E22_21 E21_20"/>
    </vehicle>
    <vehicle id="90" depart="53.65" departSpeed="max">
        <route edges="E34_33 E33_32 E32_31 E31_41"/>
    </vehicle>
    <vehicle id="91" depart="54.24" departSpeed="max">
        <route edges="E43_33 E33_23 E23_13 E13_12 E12_11 E11_10"/>
    </vehicle>
    <vehicle id="92" depart="54.84" departSpeed="max">
        <route edges="E14_13 E13_23 E23_22 E22_12 E12_13 E13_14"/>
    </vehicle>
    <vehicle id="93" depart="55.44" departSpeed="max">
        <route edges="E42_32 E32_22 E22_12 E12_02"/>
    </vehicle>
    <vehicle id="94" depart="56.03" departSpeed="max">
        <route edges="E03_13 E13_23 E23_22 E22_21 E21_20"/>
    </vehicle>
    <vehicle id="95" depart="56.63" departSpeed="max">
        <route edges="E20_21 E21_22 E22_23 E23_13 E13_03"/>
    </vehicle>
    <vehicle id="96" depart="57.22" departSpeed="max">
        <route edges="E03_13 E13_23 E23_33 E33_43"/>
    </vehicle>
    <vehicle id="97" depart="57.82" departSpeed="max">
        <route edges="E20_21 E21_31 E31_32 E32_33 E33_34"/>
    </vehicle>
    <vehicle id="98" depart="58.42" departSpeed="max">
        <route edges="E24_23 E23_22 E22_21 E21_11 E11_01"/>
    </vehicle>
    <vehicle id="99" depart="59.01" departSpeed="max">
        <route edges="E43_33 E33_34"/>
    </vehicle>
    <vehicle id="100" depart="59.61" departSpeed="max">
        <route edges="E43_33 E33_32 E32_22 E22_23 E23_33 E33_43"/>
    </vehicle>
    <vehicle id="101" depart="60.21" departSpeed="max">
        <route edges="E42_32 E32_22 E22_12 E12_11 E11_10"/>
    </vehicle>
    <vehicle id="102" depart="60.80" departSpeed="max">
        <route edges="E20_21 E21_22 E22_12 E12_02"/>
    </vehicle>
    <vehicle id="103" depart="61.40" departSpeed="max">
        <route edges="E14_13 E13_12 E12_11 E11_01"/>
    </vehicle>
    <vehicle id="104" depart="61.99" departSpeed="max">
        <route edges="E14_13 E13_23 E23_33 E33_43"/>
    </vehicle>
    <vehicle id="105" depart="62.59" departSpeed="max">
        <route edges="E10_11 E11_12 E12_22 E22_32 E32_42"/>
    </vehicle>
    <vehicle id="106" depart="63.19" departSpeed="max">
        <route edges="E20_21 E21_11 E11_12 E12_22 E22_21 E21_20"/>
    </vehicle>
    <vehicle id="107" depart="63.78" departSpeed="max">
        <route edges="E43_33 E33_32 E32_22 E22_23 E23_33 E33_43"/>
    </vehicle>
    <vehicle id="108" depart="64.38" departSpeed="max">
        <route edges="E24_23 E23_22 E22_21 E21_31 E31_41"/>
    </vehicle>
    <vehicle id="109" depart="64.97" departSpeed="max">
        <route edges="E02_12 E12_13 E13_03"/>
    </vehicle>
    <vehicle id="110" depart="65.57" departSpeed="max">
        <route edges="E43_33 E33_23 E23_24"/>
    </vehicle>
    <vehicle id="111" depart="66.17" departSpeed="max">
        <route edges="E24_23 E23_22 E22_21 E21_31 E31_41"/>
    </vehicle>
    <vehicle id="112" depart="66.76" departSpeed="max">
        <route edges="E01_11 E11_21 E21_31 E31_30"/>
    </vehicle>
    <vehicle id="113" depart="67.36" departSpeed="max">
        <route edges="E24_23 E23_33 E33_34"/>
    </vehicle>
    <vehicle id="114" depart="67.95" departSpeed="max">
        <route edges="E02_12 E12_13 E13_23 E23_33 E33_43"/>
    </vehicle>
    <vehicle id="115" depart="68.55" departSpeed="max">
        <route edges="E01_11 E11_12 E12_02"/>
    </vehicle>
    <vehicle id="116" depart="69.15" departSpeed="max">
        <route edges="E30_31 E31_41"/>
    </vehicle>
    <vehicle id="117" depart="69.74" departSpeed="max">
        <route edges="E03_13 E13_12 E12_11 E11_10"/>
    </vehicle>
    <vehicle id="118" depart="70.34" departSpeed="max">
        <route edges="E42_32 E32_22 E22_12 E12_02"/>
    </vehicle>
    <vehicle id="119" depart="70.93" departSpeed="max">
        <route edges="E30_31 E31_21 E21_22 E22_32 E32_31 E31_30"/>
    </vehicle>
    <vehicle id="120" depart="71.53" departSpeed="max">
        <route edges="E20_21 E21_31 E31_30"/>
    </vehicle>
    <vehicle id="121" depart="72.13" departSpeed="max">
        <route edges="E24_23 E23_33 E33_43"/>
    </vehicle>
    <vehicle id="122" depart="72.72" departSpeed="max">
        <route edges="E03_13 E13_23 E23_33 E33_32 E32_31 E31_41"/>
    </vehicle>
    <vehicle id="123" depart="73.32" departSpeed="max">
        <route edges="E03_13 E13_14"/>
    </vehicle>
    <vehicle id="124" depart="73.92" departSpeed="max">
        <route edges="E34_33 E33_23 E23_13 E13_03"/>
    </vehicle>
    <vehicle id="125" depart="74.51" departSpeed="max">
        <route edges="E10_11 E11_12 E12_22 E22_32 E32_42"/>
    </vehicle>
    <vehicle id="126" depart="75.11" departSpeed="max">
        <route edges="E01_11 E11_21 E21_20"/>
    </vehicle>
    <vehicle id="127" depart="75.70" departSpeed="max">
        <route edges="E43_33 E33_32 E32_22 E22_23 E23_33 E33_43"/>
    </vehicle>
    <vehicle id="128" depart="76.30" departSpeed="max">
        <route edges="E01_11 E11_12 E12_02"/>
    </vehicle>
    <vehicle id="129" depart="76.90" departSpeed="max">
        <route edges="E10_11 E11_12 E12_13 E13_23 E23_33 E33_43"/>
    </vehicle>
    <vehicle id="130" depart="77.49" departSpeed="max">
        <route edges="E42_32 E32_33 E33_34"/>
    </vehicle>
    <vehicle id="131" depart="78.09" departSpeed="max">
        <route edges="E14_13 E13_12 E12_11 E11_10"/>
    </vehicle>
    <vehicle id="132" depart="78.68" departSpeed="max">
        <route edges="E42_32 E32_31 E31_41"/>
    </vehicle>
    <vehicle id="133" depart="79.28" departSpeed="max">
        <route edges="E30_31 E31_32 E32_33 E33_43"/>
    </vehicle>
    <vehicle id="134" depart="79.88" departSpeed="max">
        <route edges="E30_31 E31_21 E21_11 E11_01"/>
    </vehicle>
    <vehicle id="135" depart="80.47" departSpeed="max">
        <route edges="E41_31 E31_21 E21_11 E11_12 E12_13 E13_03"/>
    </vehicle>
    <vehicle id="136" depart="81.07" departSpeed="max">
        <route edges="E30_31 E31_32 E32_33 E33_43"/>
    </vehicle>
    <vehicle id="137" depart="81.66" departSpeed="max">
        <route edges="E02_12 E12_11 E11_10"/>
    </vehicle>
    <vehicle id="138" depart="82.26" departSpeed="max">
        <route edges="E02_12 E12_22 E22_23 E23_24"/>
    </vehicle>
    <vehicle id="139" depart="82.86" departSpeed="max">
        <route edges="E10_11 E11_21 E21_31 E31_30"/>
    </vehicle>
    <vehicle id="140" depart="83.45" departSpeed="max">
        <route edges="E34_33 E33_32 E32_22 E22_12 E12_02"/>
    </vehicle>
    <vehicle id="141" depart="84.05" departSpeed="max">
        <route edges="E30_31 E31_32 E32_33 E33_23 E23_13 E13_03"/>
    </vehicle>
    <vehicle id="142" depart="84.64" departSpeed="max">
        <route edges="E20_21 E21_31 E31_32 E32_33 E33_34"/>
    </vehicle>
    <vehicle id="143" depart="85.24" departSpeed="max">
        <route edges="E42_32 E32_22 E22_12 E12_11 E11_10"/>
    </vehicle>
    <vehicle id="144" depart="85.84" departSpeed="max">
        <route edges="E20_21 E21_22 E22_23 E23_13 E13_03"/>
    </vehicle>
    <vehicle id="145" depart="86.43" departSpeed="max">
        <route edges="E01_11 E11_12 E12_22 E22_32 E32_42"/>
    </vehicle>
    <vehicle id="146" depart="87.03" departSpeed="max">
        <route edges="E30_31 E31_32 E32_33 E33_23 E23_13 E13_03"/>
    </vehicle>
    <vehicle id="147" depart="87.63" departSpeed="max">
        <route edges="E34_33 E33_23 E23_24"/>
    </vehicle>
    <vehicle id="148" depart="88.22" departSpeed="max">
        <route edges="E20_21 E21_11 E11_01"/>
    </vehicle>
    <vehicle id="149" depart="88.82" departSpeed="max">
        <route edges="E01_11 E11_21 E21_31 E31_32 E32_33 E33_34"/>
    </vehicle>
    <vehicle id="150" depart="89.41" departSpeed="max">
        <route edges="E42_32 E32_22 E22_23 E23_24"/>
    </vehicle>
    <vehicle id="151" depart="90.01" departSpeed="max">
        <route edges="E42_32 E32_22 E22_23 E23_24"/>
    </vehicle>
    <vehicle id="152" depart="90.61" departSpeed="max">
        <route edges="E02_12 E12_11 E11_10"/>
    </vehicle>
    <vehicle id="153" depart="91.20" departSpeed="max">
        <route edges="E10_11 E11_12 E12_13 E13_23 E23_33 E33_34"/>
    </vehicle>
    <vehicle id="154" depart="91.80" departSpeed="max">
        <route edges="E41_31 E31_32 E32_33 E33_34"/>
    </vehicle>
    <vehicle id="155" depart="92.39" departSpeed="max">
        <route edges="E42_32 E32_22 E22_12 E12_02"/>
    </vehicle>
    <vehicle id="156" depart="92.99" departSpeed="max">
        <route edges="E03_13 E13_12 E12_11 E11_10"/>
    </vehicle>
    <vehicle id="157" depart="93.59" departSpeed="max">
        <route edges="E41_31 E31_32 E32_33 E33_34"/>
    </vehicle>
    <vehicle id="158" depart="94.18" departSpeed="max">
        <route edges="E14_13 E13_23 E23_33 E33_32 E32_31 E31_30"/>
    </vehicle>
    <vehicle id="159" depart="94.78" departSpeed="max">
        <route edges="E02_12 E12_13 E13_23 E23_33 E33_43"/>
    </vehicle>
    <vehicle id="160" depart="95.37" departSpeed="max">
        <route edges="E42_32 E32_33 E33_43"/>
    </vehicle>
    <vehicle id="161" depart="95.97" departSpeed="max">
        <route edges="E41_31 E31_32 E32_33 E33_34"/>
    </vehicle>
    <vehicle id="162" depart="96.57" departSpeed="max">
        <route edges="E01_11 E11_21 E21_31 E31_41"/>
    </vehicle>
    <vehicle id="163" depart="97.16" departSpeed="max">
        <route edges="E10_11 E11_12 E12_13 E13_23 E23_33 E33_43"/>
    </vehicle>
    <vehicle id="164" depart="97.76" departSpeed="max">
        <route edges="E41_31 E31_32 E32_33 E33_34"/>
    </vehicle>
    <vehicle id="165" depart="98.35" departSpeed="max">
        <route edges="E41_31 E31_21 E21_11 E11_12 E12_13 E13_03"/>
    </vehicle>
    <vehicle id="166" depart="98.95" departSpeed="max">
        <route edges="E41_31 E31_21 E21_11 E11_10"/>
    </vehicle>
    <vehicle id="167" depart="99.55" departSpeed="max">
        <route edges="E42_32 E32_33 E33_34"/>
    </vehicle>
    <vehicle id="168" depart="100.14" departSpeed="max">
        <route edges="E03_13 E13_12 E12_22 E22_32 E32_42"/>
    </vehicle>
    <vehicle id="169" depart="100.74" departSpeed="max">
        <route edges="E20_21 E21_22 E22_23 E23_13 E13_03"/>
    </vehicle>
    <vehicle id="170" depart="101.34" departSpeed="max">
        <route edges="E41_31 E31_32 E32_22 E22_12 E12_02"/>
    </vehicle>
    <vehicle id="171" depart="101.93" departSpeed="max">
        <route edges="E01_11 E11_12 E12_02"/>
    </vehicle>
    <vehicle id="172" depart="102.53" departSpeed="max">
        <route edges="E10_11 E11_12 E12_13 E13_23 E23_33 E33_34"/>
    </vehicle>
    <vehicle id="173" depart="103.12" departSpeed="max">
        <route edges="E43_33 E33_23 E23_13 E13_03"/>
    </vehicle>
    <vehicle id="174" depart="103.72" departSpeed="max">
        <route edges="E30_31 E31_21 E21_11 E11_12 E12_13 E13_14"/>
    </vehicle>
    <vehicle id="175" depart="104.32" departSpeed="max">
        <route edges="E43_33 E33_23 E23_24"/>
    </vehicle>
    <vehicle id="176" depart="104.91" departSpeed="max">
        <route edges="E43_33 E33_23 E23_13 E13_12 E12_11 E11_10"/>
    </vehicle>
    <vehicle id="177" depart="105.51" departSpeed="max">
        <route edges="E43_33 E33_32 E32_22 E22_12 E12_02"/>
    </vehicle>
    <vehicle id="178" depart="106.10" departSpeed="max">
        <route edges="E43_33 E33_23 E23_13 E13_03"/>
    </vehicle>
    <vehicle id="179" depart="106.70" departSpeed="max">
        <route edges="E02_12 E12_22 E22_21 E21_20"/>
    </vehicle>
    <vehicle id="180" depart="107.30" departSpeed="max">
        <route edges="E34_33 E33_23 E23_13 E13_03"/>
    </vehicle>
    <vehicle id="181" depart="107.89" departSpeed="max">
        <route edges="E30_31 E31_21 E21_22 E22_23 E23_24"/>
    </vehicle>
    <vehicle id="182" depart="108.49" departSpeed="max">
        <route edges="E14_13 E13_23 E23_24"/>
    </vehicle>
    <vehicle id="183" depart="109.08" departSpeed="max">
        <route edges="E10_11 E11_21 E21_31 E31_41"/>
    </vehicle>
    <vehicle id="184" depart="109.68" departSpeed="max">
        <route edges="E01_11 E11_12 E12_13 E13_23 E23_33 E33_43"/>
    </vehicle>
    <vehicle id="185" depart="110.28" departSpeed="max">
        <route edges="E24_23 E23_22 E22_21 E21_31 E31_41"/>
    </vehicle>
    <vehicle id="186" depart="110.87" departSpeed="max">
        <route edges="E34_33 E33_32 E32_31 E31_41"/>
    </vehicle>
    <vehicle id="187" depart="111.47" departSpeed="max">
        <route edges="E14_13 E13_12 E12_11 E11_01"/>
    </vehicle>
    <vehicle id="188" depart="112.06" departSpeed="max">
        <route edges="E30_31 E31_32 E32_33 E33_23 E23_13 E13_03"/>
    </vehicle>
    <vehicle id="189" depart="112.66" departSpeed="max">
        <route edges="E10_11 E11_12 E12_13 E13_23 E23_33 E33_34"/>
    </vehicle>
    <vehicle id="190" depart="113.26" departSpeed="max">
        <route edges="E34_33 E33_23 E23_13 E13_03"/>
    </vehicle>
    <vehicle id="191" depart="113.85" departSpeed="max">
        <route edges="E10_11 E11_12 E12_13 E13_14"/>
    </vehicle>
    <vehicle id="192" depart="114.45" departSpeed="max">
        <route edges="E14_13 E13_03"/>
    </vehicle>
    <vehicle id="193" depart="115.05" departSpeed="max">
        <route edges="E02_12 E12_22 E22_21 E21_20"/>
    </vehicle>
    <vehicle id="194" depart="115.64" departSpeed="max">
        <route edges="E43_33 E33_32 E32_31 E31_41"/>
    </vehicle>
    <vehicle id="195" depart="116.24" departSpeed="max">
        <route edges="E42_32 E32_31 E31_30"/>
    </vehicle>
    <vehicle id="196" depart="116.83" departSpeed="max">
        <route edges="E10_11 E11_21 E21_22 E22_23 E23_24"/>
    </vehicle>
    <vehicle id="197" depart="117.43" departSpeed="max">
        <route edges="E01_11 E11_12 E12_13 E13_03"/>
    </vehicle>
    <vehicle id="198" depart="118.03" departSpeed="max">
        <route edges="E20_21 E21_22 E22_23 E23_24"/>
    </vehicle>
    <vehicle id="199" depart="118.62" departSpeed="max">
        <route edges="E30_31 E31_21 E21_20"/>
    </vehicle>
    <vehicle id="200" depart="119.22" departSpeed="max">
        <route edges="E20_21 E21_22 E22_12 E12_02"/>
    </vehicle>
    <vehicle id="201" depart="119.81" departSpeed="max">
        <route edges="E20_21 E21_31 E31_32 E32_33 E33_34"/>
    </vehicle>
    <vehicle id="202" depart="120.41" departSpeed="max">
        <route edges="E41_31 E31_32 E32_22 E22_12 E12_02"/>
    </vehicle>
    <vehicle id="203" depart="121.01" departSpeed="max">
        <route edges="E02_12 E12_22 E22_23 E23_24"/>
    </vehicle>
    <vehicle id="204" depart="121.60" departSpeed="max">
        <route edges="E30_31 E31_21 E21_11 E11_12 E12_13 E13_14"/>
    </vehicle>
    <vehicle id="205" depart="122.20" departSpeed="max">
        <route edges="E41_31 E31_32 E32_42"/>
    </vehicle>
    <vehicle id="206" depart="122.79" departSpeed="max">
        <route edges="E34_33 E33_32 E32_22 E22_12 E12_02"/>
    </vehicle>
    <vehicle id="207" depart="123.39" departSpeed="max">
        <route edges="E03_13 E13_12 E12_11 E11_01"/>
    </vehicle>
    <vehicle id="208" depart="123.99" departSpeed="max">
        <route edges="E03_13 E13_23 E23_22 E22_21 E21_20"/>
    </vehicle>
    <vehicle id="209" depart="124.58" departSpeed="max">
        <route edges="E42_32 E32_31 E31_21 E21_11 E11_01"/>
    </vehicle>
    <vehicle id="210" depart="125.18" departSpeed="max">
        <route edges="E14_13 E13_23 E23_33 E33_32 E32_31 E31_30"/>
    </vehicle>
    <vehicle id="211" depart="125.77" departSpeed="max">
        <route edges="E03_13 E13_23 E23_33 E33_32 E32_31 E31_41"/>
    </vehicle>
    <vehicle id="212" depart="126.37" departSpeed="max">
        <route edges="E20_21 E21_22 E22_12 E12_02"/>
    </vehicle>
    <vehicle id="213" depart="126.97" departSpeed="max">
        <route edges="E30_31 E31_21 E21_11 E11_01"/>
    </vehicle>
    <vehicle id="214" depart="127.56" departSpeed="max">
        <route edges="E41_31 E31_32 E32_42"/>
    </vehicle>
    <vehicle id="215" depart="128.16" departSpeed="max">
        <route edges="E02_12 E12_22 E22_21 E21_20"/>
    </vehicle>
    <vehicle id="216" depart="128.76" departSpeed="max">
        <route edges="E03_13 E13_23 E23_33 E33_43"/>
    </vehicle>
    <vehicle id="217" depart="129.35" departSpeed="max">
        <route edges="E24_23 E23_22 E22_21 E21_11 E11_01"/>
    </vehicle>
    <vehicle id="218" depart="129.95" departSpeed="max">
        <route edges="E03_13 E13_23 E23_33 E33_34"/>
    </vehicle>
    <vehicle id="219" depart="130.54" departSpeed="max">
        <route edges="E20_21 E21_22 E22_32 E32_42"/>
    </vehicle>
    <vehicle id="220" depart="131.14" departSpeed="max">
        <route edges="E34_33 E33_43"/>
    </vehicle>
    <vehicle id="221" depart="131.74" departSpeed="max">
        <route edges="E30_31 E31_32 E32_33 E33_43"/>
    </vehicle>
    <vehicle id="222" depart="132.33" departSpeed="max">
        <route edges="E42_32 E32_31 E31_30"/>
    </vehicle>
    <vehicle id="223" depart="132.93" departSpeed="max">
        <route edges="E34_33 E33_23 E23_24"/>
    </vehicle>
    <vehicle id="224" depart="133.52" departSpeed="max">
        <route edges="E41_31 E31_21 E21_22 E22_23 E23_24"/>
    </vehicle>
    <vehicle id="225" depart="134.12" departSpeed="max">
        <route edges="E42_32 E32_31 E31_41"/>
    </vehicle>
    <vehicle id="226" depart="134.72" departSpeed="max">
        <route edges="E20_21 E21_22 E22_23 E23_13 E13_03"/>
    </vehicle>
    <vehicle id="227" depart="135.31" departSpeed="max">
        <route edges="E03_13 E13_23 E23_33 E33_32 E32_31 E31_30"/>
    </vehicle>