<configuration>
    <input>
        <net-file value="grid3x3.net.xml"/>
        <route-files value="9x3_05-1-2-05-1-2-05-1-2.rou.xml"/>
    </input>
    <processing>
        <lateral-resolution value="1" />
        <waiting-time-memory value="4000" />
    </processing>
</configuration>